<?xml version="1.0" encoding="UTF-8"?>
<!-- generated on 2018-11-11 13:48:49.490112 by $Id$
  options: 
-->
<routes xmlns:xsi="http://www.w3.org/2001/XMLSchema-instance" xsi:noNamespaceSchemaLocation="http://sumo.dlr.de/xsd/routes_file.xsd">
    <vType id="ped_pedestrian" vClass="pedestrian"/>
    <person id="ped0" depart="0.00" type="ped_pedestrian">
        <walk from="451808494#1" to="-438389786#1"/>
    </person>
    <person id="ped1" depart="3.69" type="ped_pedestrian">
        <walk from="118400726#5" to="109295313#0"/>
    </person>
    <person id="ped2" depart="7.39" type="ped_pedestrian">
        <walk from="561084838#4" to="546665391#0"/>
    </person>
    <person id="ped3" depart="11.08" type="ped_pedestrian">
        <walk from="5671774#4" to="-561084838#9"/>
    </person>
    <person id="ped4" depart="14.77" type="ped_pedestrian">
        <walk from="420598256" to="-496992369#2"/>
    </person>
    <person id="ped5" depart="18.47" type="ped_pedestrian">
        <walk from="109295313#0" to="430404709#0"/>
    </person>
    <person id="ped6" depart="22.16" type="ped_pedestrian">
        <walk from="-438389786#1" to="109295311#1"/>
    </person>
    <person id="ped7" depart="25.85" type="ped_pedestrian">
        <walk from="496992363#0" to="430404710"/>
    </person>
    <person id="ped8" depart="29.55" type="ped_pedestrian">
        <walk from="109295313#0" to="438389786#0"/>
    </person>
    <person id="ped9" depart="33.24" type="ped_pedestrian">
        <walk from="5669962#9" to="-438388090#1"/>
    </person>
    <person id="ped10" depart="36.93" type="ped_pedestrian">
        <walk from="5669962#9" to="546665391#1"/>
    </person>
    <person id="ped11" depart="40.62" type="ped_pedestrian">
        <walk from="25162679#3" to="-630828594#1"/>
    </person>
    <person id="ped12" depart="44.32" type="ped_pedestrian">
        <walk from="5672604#6" to="25162679#2"/>
    </person>
    <person id="ped13" depart="48.01" type="ped_pedestrian">
        <walk from="-561084838#9" to="-561084838#9"/>
    </person>
    <person id="ped14" depart="51.70" type="ped_pedestrian">
        <walk from="5671429#5" to="451808493#2"/>
    </person>
    <person id="ped15" depart="55.40" type="ped_pedestrian">
        <walk from="5669962#9" to="561084838#0"/>
    </person>
    <person id="ped16" depart="59.09" type="ped_pedestrian">
        <walk from="430404710" to="610292624"/>
    </person>
    <person id="ped17" depart="62.78" type="ped_pedestrian">
        <walk from="418994851" to="430404712"/>
    </person>
    <person id="ped18" depart="66.48" type="ped_pedestrian">
        <walk from="5671429#0" to="451808493#3"/>
    </person>
    <person id="ped19" depart="70.17" type="ped_pedestrian">
        <walk from="5671429#6" to="438388090#1"/>
    </person>
    <person id="ped20" depart="73.86" type="ped_pedestrian">
        <walk from="546665397" to="-561084838#3"/>
    </person>
    <person id="ped21" depart="77.56" type="ped_pedestrian">
        <walk from="109295313#1" to="22902609"/>
    </person>
    <person id="ped22" depart="81.25" type="ped_pedestrian">
        <walk from="-561084838#7" to="109295313#1"/>
    </person>
    <person id="ped23" depart="84.94" type="ped_pedestrian">
        <walk from="-5671774#19" to="118400726#5"/>
    </person>
    <person id="ped24" depart="88.64" type="ped_pedestrian">
        <walk from="451808494#1" to="418994849"/>
    </person>
    <person id="ped25" depart="92.33" type="ped_pedestrian">
        <walk from="418994851" to="109295311#1"/>
    </person>
    <person id="ped26" depart="96.02" type="ped_pedestrian">
        <walk from="118400726#2" to="5672604#4"/>
    </person>
    <person id="ped27" depart="99.72" type="ped_pedestrian">
        <walk from="496992363#0" to="451808493#3"/>
    </person>
    <person id="ped28" depart="103.41" type="ped_pedestrian">
        <walk from="109295305" to="561084838#0"/>
    </person>
    <person id="ped29" depart="107.10" type="ped_pedestrian">
        <walk from="-630828594#1" to="418994851"/>
    </person>
    <person id="ped30" depart="110.80" type="ped_pedestrian">
        <walk from="630828594#0" to="451808494#1"/>
    </person>
    <person id="ped31" depart="114.49" type="ped_pedestrian">
        <walk from="430404712" to="546665391#0"/>
    </person>
    <person id="ped32" depart="118.18" type="ped_pedestrian">
        <walk from="5671429#4" to="5669962#0"/>
    </person>
    <person id="ped33" depart="121.87" type="ped_pedestrian">
        <walk from="109295313#1" to="-496992369#2"/>
    </person>
    <person id="ped34" depart="125.57" type="ped_pedestrian">
        <walk from="25162679#1" to="118400726#5"/>
    </person>
    <person id="ped35" depart="129.26" type="ped_pedestrian">
        <walk from="109295311#1" to="5672604#4"/>
    </person>
    <person id="ped36" depart="132.95" type="ped_pedestrian">
        <walk from="5671774#0" to="25162679#1"/>
    </person>
    <person id="ped37" depart="136.65" type="ped_pedestrian">
        <walk from="496992363#0" to="420598248"/>
    </person>
    <person id="ped38" depart="140.34" type="ped_pedestrian">
        <walk from="5672604#0" to="430404704#1"/>
    </person>
    <person id="ped39" depart="144.03" type="ped_pedestrian">
        <walk from="118400726#2" to="118400726#0"/>
    </person>
    <person id="ped40" depart="147.73" type="ped_pedestrian">
        <walk from="430404712" to="118400726#2"/>
    </person>
    <person id="ped41" depart="151.42" type="ped_pedestrian">
        <walk from="438389786#0" to="5671774#4"/>
    </person>
    <person id="ped42" depart="155.11" type="ped_pedestrian">
        <walk from="420598248" to="109295313#0"/>
    </person>
    <person id="ped43" depart="158.81" type="ped_pedestrian">
        <walk from="630828594#0" to="430404709#1"/>
    </person>
    <person id="ped44" depart="162.50" type="ped_pedestrian">
        <walk from="-561084838#9" to="-561084838#3"/>
    </person>
    <person id="ped45" depart="166.19" type="ped_pedestrian">
        <walk from="-5671774#19" to="451808494#0"/>
    </person>
    <person id="ped46" depart="169.89" type="ped_pedestrian">
        <walk from="5669962#6" to="420598256"/>
    </person>
    <person id="ped47" depart="173.58" type="ped_pedestrian">
        <walk from="-561084838#5" to="420598238"/>
    </person>
    <person id="ped48" depart="177.27" type="ped_pedestrian">
        <walk from="630828594#0" to="430404709#2"/>
    </person>
    <person id="ped49" depart="180.97" type="ped_pedestrian">
        <walk from="570158629" to="5671429#6"/>
    </person>
    <person id="ped50" depart="184.66" type="ped_pedestrian">
        <walk from="-438388090#1" to="561084838#0"/>
    </person>
    <person id="ped51" depart="188.35" type="ped_pedestrian">
        <walk from="546665391#0" to="430404710"/>
    </person>
    <person id="ped52" depart="192.05" type="ped_pedestrian">
        <walk from="118400726#2" to="451808494#1"/>
    </person>
    <person id="ped53" depart="195.74" type="ped_pedestrian">
        <walk from="-5671774#19" to="420598262"/>
    </person>
    <person id="ped54" depart="199.43" type="ped_pedestrian">
        <walk from="430404704#1" to="5672604#6"/>
    </person>
    <person id="ped55" depart="203.12" type="ped_pedestrian">
        <walk from="5671774#0" to="118400726#2"/>
    </person>
    <person id="ped56" depart="206.82" type="ped_pedestrian">
        <walk from="430404709#0" to="109295305"/>
    </person>
    <person id="ped57" depart="210.51" type="ped_pedestrian">
        <walk from="5672604#0" to="5671429#6"/>
    </person>
    <person id="ped58" depart="214.20" type="ped_pedestrian">
        <walk from="25162679#0" to="451808494#1"/>
    </person>
    <person id="ped59" depart="217.90" type="ped_pedestrian">
        <walk from="451808493#3" to="-570158629"/>
    </person>
    <person id="ped60" depart="221.59" type="ped_pedestrian">
        <walk from="561084838#8" to="430404710"/>
    </person>
    <person id="ped61" depart="225.28" type="ped_pedestrian">
        <walk from="5669962#0" to="430404709#2"/>
    </person>
    <person id="ped62" depart="228.98" type="ped_pedestrian">
        <walk from="-438388090#1" to="25162679#2"/>
    </person>
    <person id="ped63" depart="232.67" type="ped_pedestrian">
        <walk from="-438389786#1" to="5672604#2"/>
    </person>
    <person id="ped64" depart="236.36" type="ped_pedestrian">
        <walk from="5671774#0" to="5671429#4"/>
    </person>
    <person id="ped65" depart="240.06" type="ped_pedestrian">
        <walk from="25162679#0" to="-561084838#5"/>
    </person>
    <person id="ped66" depart="243.75" type="ped_pedestrian">
        <walk from="5671774#0" to="5672604#6"/>
    </person>
    <person id="ped67" depart="247.44" type="ped_pedestrian">
        <walk from="-561084838#9" to="430404708"/>
    </person>
    <person id="ped68" depart="251.14" type="ped_pedestrian">
        <walk from="-561084838#5" to="561084838#8"/>
    </person>
    <person id="ped69" depart="254.83" type="ped_pedestrian">
        <walk from="561084838#8" to="-5672948#0"/>
    </person>
    <person id="ped70" depart="258.52" type="ped_pedestrian">
        <walk from="430404705#1" to="430404712"/>
    </person>
    <person id="ped71" depart="262.22" type="ped_pedestrian">
        <walk from="118400726#2" to="5671429#6"/>
    </person>
    <person id="ped72" depart="265.91" type="ped_pedestrian">
        <walk from="420598262" to="109295313#0"/>
    </person>
    <person id="ped73" depart="269.60" type="ped_pedestrian">
        <walk from="430404710" to="561084838#0"/>
    </person>
    <person id="ped74" depart="273.30" type="ped_pedestrian">
        <walk from="109295311#1" to="25162679#1"/>
    </person>
    <person id="ped75" depart="276.99" type="ped_pedestrian">
        <walk from="630828594#0" to="496992363#0"/>
    </person>
    <person id="ped76" depart="280.68" type="ped_pedestrian">
        <walk from="430404704#0" to="430404709#1"/>
    </person>
    <person id="ped77" depart="284.37" type="ped_pedestrian">
        <walk from="-5671774#3" to="109295313#0"/>
    </person>
    <person id="ped78" depart="288.07" type="ped_pedestrian">
        <walk from="25162679#3" to="438389786#0"/>
    </person>
    <person id="ped79" depart="291.76" type="ped_pedestrian">
        <walk from="109295313#1" to="109295313#0"/>
    </person>
    <person id="ped80" depart="295.45" type="ped_pedestrian">
        <walk from="-561084838#7" to="451808494#0"/>
    </person>
    <person id="ped81" depart="299.15" type="ped_pedestrian">
        <walk from="109295313#1" to="5672604#0"/>
    </person>
    <person id="ped82" depart="302.84" type="ped_pedestrian">
        <walk from="5671429#6" to="-561084838#7"/>
    </person>
    <person id="ped83" depart="306.53" type="ped_pedestrian">
        <walk from="109295313#1" to="496992369#0"/>
    </person>
    <person id="ped84" depart="310.23" type="ped_pedestrian">
        <walk from="109295313#0" to="-5672948#0"/>
    </person>
    <person id="ped85" depart="313.92" type="ped_pedestrian">
        <walk from="5672604#4" to="438388090#1"/>
    </person>
    <person id="ped86" depart="317.61" type="ped_pedestrian">
        <walk from="430404705#1" to="5669962#0"/>
    </person>
    <person id="ped87" depart="321.31" type="ped_pedestrian">
        <walk from="5669962#9" to="109295311#0"/>
    </person>
    <person id="ped88" depart="325.00" type="ped_pedestrian">
        <walk from="-561084838#9" to="420598262"/>
    </person>
    <person id="ped89" depart="328.69" type="ped_pedestrian">
        <walk from="420598262" to="430404705#1"/>
    </person>
    <person id="ped90" depart="332.39" type="ped_pedestrian">
        <walk from="561084838#0" to="496992369#0"/>
    </person>
    <person id="ped91" depart="336.08" type="ped_pedestrian">
        <walk from="610292624" to="-561084838#9"/>
    </person>
    <person id="ped92" depart="339.77" type="ped_pedestrian">
        <walk from="420598248" to="25162679#3"/>
    </person>
    <person id="ped93" depart="343.47" type="ped_pedestrian">
        <walk from="5671429#6" to="118400726#0"/>
    </person>
    <person id="ped94" depart="347.16" type="ped_pedestrian">
        <walk from="109295311#0" to="430404704#0"/>
    </person>
    <person id="ped95" depart="350.85" type="ped_pedestrian">
        <walk from="420598256" to="118400726#5"/>
    </person>
    <person id="ped96" depart="354.55" type="ped_pedestrian">
        <walk from="118400726#0" to="5672604#2"/>
    </person>
    <person id="ped97" depart="358.24" type="ped_pedestrian">
        <walk from="430404704#0" to="5671429#6"/>
    </person>
    <person id="ped98" depart="361.93" type="ped_pedestrian">
        <walk from="430404712" to="-561084838#3"/>
    </person>
    <person id="ped99" depart="365.62" type="ped_pedestrian">
        <walk from="630828594#0" to="5671429#4"/>
    </person>
    <person id="ped100" depart="369.32" type="ped_pedestrian">
        <walk from="570158629" to="5672604#2"/>
    </person>
    <person id="ped101" depart="373.01" type="ped_pedestrian">
        <walk from="5671429#5" to="-630828594#1"/>
    </person>
    <person id="ped102" depart="376.70" type="ped_pedestrian">
        <walk from="430404708" to="109295313#0"/>
    </person>
    <person id="ped103" depart="380.40" type="ped_pedestrian">
        <walk from="420598248" to="-561084838#5"/>
    </person>
    <person id="ped104" depart="384.09" type="ped_pedestrian">
        <walk from="418994851" to="610292624"/>
    </person>
    <person id="ped105" depart="387.78" type="ped_pedestrian">
        <walk from="118400726#2" to="5669962#0"/>
    </person>
    <person id="ped106" depart="391.48" type="ped_pedestrian">
        <walk from="430404704#1" to="420598262"/>
    </person>
    <person id="ped107" depart="395.17" type="ped_pedestrian">
        <walk from="5672604#6" to="630828594#0"/>
    </person>
    <person id="ped108" depart="398.86" type="ped_pedestrian">
        <walk from="430404712" to="561084838#0"/>
    </person>
    <person id="ped109" depart="402.56" type="ped_pedestrian">
        <walk from="-570158629" to="25162679#0"/>
    </person>
    <person id="ped110" depart="406.25" type="ped_pedestrian">
        <walk from="570158629" to="438389786#0"/>
    </person>
    <person id="ped111" depart="409.94" type="ped_pedestrian">
        <walk from="430404710" to="561084838#6"/>
    </person>
    <person id="ped112" depart="413.64" type="ped_pedestrian">
        <walk from="-561084838#5" to="438389786#0"/>
    </person>
    <person id="ped113" depart="417.33" type="ped_pedestrian">
        <walk from="430404709#0" to="5671429#5"/>
    </person>
    <person id="ped114" depart="421.02" type="ped_pedestrian">
        <walk from="-630828594#1" to="570158629"/>
    </person>
    <person id="ped115" depart="424.72" type="ped_pedestrian">
        <walk from="-561084838#7" to="109295311#0"/>
    </person>
    <person id="ped116" depart="428.41" type="ped_pedestrian">
        <walk from="451808493#2" to="496992369#0"/>
    </person>
    <person id="ped117" depart="432.10" type="ped_pedestrian">
        <walk from="109295313#1" to="-5671774#3"/>
    </person>
    <person id="ped118" depart="435.79" type="ped_pedestrian">
        <walk from="5671774#4" to="118400726#0"/>
    </person>
    <person id="ped119" depart="439.49" type="ped_pedestrian">
        <walk from="451808493#2" to="451808493#3"/>
    </person>
    <person id="ped120" depart="443.18" type="ped_pedestrian">
        <walk from="420598256" to="438389786#0"/>
    </person>
    <person id="ped121" depart="446.87" type="ped_pedestrian">
        <walk from="430404709#2" to="5672604#4"/>
    </person>
    <person id="ped122" depart="450.57" type="ped_pedestrian">
        <walk from="109295311#1" to="546665397"/>
    </person>
    <person id="ped123" depart="454.26" type="ped_pedestrian">
        <walk from="109295313#1" to="420598248"/>
    </person>
    <person id="ped124" depart="457.95" type="ped_pedestrian">
        <walk from="496992369#0" to="25162679#0"/>
    </person>
    <person id="ped125" depart="461.65" type="ped_pedestrian">
        <walk from="25162679#1" to="561084838#6"/>
    </person>
    <person id="ped126" depart="465.34" type="ped_pedestrian">
        <walk from="-561084838#7" to="430404704#1"/>
    </person>
    <person id="ped127" depart="469.03" type="ped_pedestrian">
        <walk from="630828594#0" to="630828594#0"/>
    </person>
    <person id="ped128" depart="472.73" type="ped_pedestrian">
        <walk from="-561084838#7" to="109295313#0"/>
    </person>
    <person id="ped129" depart="476.42" type="ped_pedestrian">
        <walk from="118400726#2" to="5672604#4"/>
    </person>
    <person id="ped130" depart="480.11" type="ped_pedestrian">
        <walk from="5671774#0" to="5671774#0"/>
    </person>
    <person id="ped131" depart="483.81" type="ped_pedestrian">
        <walk from="418994851" to="-630828594#1"/>
    </person>
    <person id="ped132" depart="487.50" type="ped_pedestrian">
        <walk from="5671429#4" to="546665391#1"/>
    </person>
    <person id="ped133" depart="491.19" type="ped_pedestrian">
        <walk from="451808493#3" to="630828594#0"/>
    </person>
    <person id="ped134" depart="494.89" type="ped_pedestrian">
        <walk from="496992363#0" to="-438388090#1"/>
    </person>
    <person id="ped135" depart="498.58" type="ped_pedestrian">
        <walk from="5671429#0" to="25162679#0"/>
    </person>
    <person id="ped136" depart="502.27" type="ped_pedestrian">
        <walk from="496992369#0" to="5672604#4"/>
    </person>
    <person id="ped137" depart="505.97" type="ped_pedestrian">
        <walk from="-5672948#0" to="-5671774#3"/>
    </person>
    <person id="ped138" depart="509.66" type="ped_pedestrian">
        <walk from="-5671774#19" to="430404712"/>
    </person>
    <person id="ped139" depart="513.35" type="ped_pedestrian">
        <walk from="118400726#5" to="451808493#2"/>
    </person>
    <person id="ped140" depart="517.04" type="ped_pedestrian">
        <walk from="546665397" to="109295311#1"/>
    </person>
    <person id="ped141" depart="520.74" type="ped_pedestrian">
        <walk from="451808494#1" to="118400726#2"/>
    </person>
    <person id="ped142" depart="524.43" type="ped_pedestrian">
        <walk from="430404708" to="5672604#0"/>
    </person>
    <person id="ped143" depart="528.12" type="ped_pedestrian">
        <walk from="5671429#5" to="-561084838#9"/>
    </person>
    <person id="ped144" depart="531.82" type="ped_pedestrian">
        <walk from="420598262" to="118400726#5"/>
    </person>
    <person id="ped145" depart="535.51" type="ped_pedestrian">
        <walk from="-438388090#1" to="561084838#8"/>
    </person>
    <person id="ped146" depart="539.20" type="ped_pedestrian">
        <walk from="451808494#1" to="118400726#2"/>
    </person>
    <person id="ped147" depart="542.90" type="ped_pedestrian">
        <walk from="561084838#4" to="430404712"/>
    </person>
    <person id="ped148" depart="546.59" type="ped_pedestrian">
        <walk from="420598262" to="-438388090#1"/>
    </person>
    <person id="ped149" depart="550.28" type="ped_pedestrian">
        <walk from="-561084838#7" to="5671774#0"/>
    </person>
    <person id="ped150" depart="553.98" type="ped_pedestrian">
        <walk from="5672604#0" to="430404710"/>
    </person>
    <person id="ped151" depart="557.67" type="ped_pedestrian">
        <walk from="5671429#4" to="438389786#0"/>
    </person>
    <person id="ped152" depart="561.36" type="ped_pedestrian">
        <walk from="-570158629" to="-5672948#0"/>
    </person>
    <person id="ped153" depart="565.06" type="ped_pedestrian">
        <walk from="25162679#0" to="5671774#4"/>
    </person>
    <person id="ped154" depart="568.75" type="ped_pedestrian">
        <walk from="5669962#6" to="5671429#6"/>
    </person>
    <person id="ped155" depart="572.44" type="ped_pedestrian">
        <walk from="5671774#4" to="109295311#1"/>
    </person>
    <person id="ped156" depart="576.14" type="ped_pedestrian">
        <walk from="118400726#0" to="-5671774#19"/>
    </person>
    <person id="ped157" depart="579.83" type="ped_pedestrian">
        <walk from="5669962#0" to="5671774#0"/>
    </person>
    <person id="ped158" depart="583.52" type="ped_pedestrian">
        <walk from="420598248" to="451808494#0"/>
    </person>
    <person id="ped159" depart="587.22" type="ped_pedestrian">
        <walk from="-570158629" to="5672604#4"/>
    </person>
    <person id="ped160" depart="590.91" type="ped_pedestrian">
        <walk from="5671429#6" to="610292624"/>
    </person>
    <person id="ped161" depart="594.60" type="ped_pedestrian">
        <walk from="5669962#9" to="5671774#0"/>
    </person>
    <person id="ped162" depart="598.29" type="ped_pedestrian">
        <walk from="-438389786#1" to="561084838#4"/>
    </person>
    <person id="ped163" depart="601.99" type="ped_pedestrian">
        <walk from="25162679#2" to="5672604#4"/>
    </person>
    <person id="ped164" depart="605.68" type="ped_pedestrian">
        <walk from="5669962#6" to="5671429#6"/>
    </person>
    <person id="ped165" depart="609.37" type="ped_pedestrian">
        <walk from="5669962#9" to="118400726#2"/>
    </person>
    <person id="ped166" depart="613.07" type="ped_pedestrian">
        <walk from="5669962#0" to="-5671774#19"/>
    </person>
    <person id="ped167" depart="616.76" type="ped_pedestrian">
        <walk from="5671429#6" to="5671429#5"/>
    </person>
    <person id="ped168" depart="620.45" type="ped_pedestrian">
        <walk from="109295313#0" to="5669962#9"/>
    </person>
    <person id="ped169" depart="624.15" type="ped_pedestrian">
        <walk from="430404704#1" to="25162679#0"/>
    </person>
    <person id="ped170" depart="627.84" type="ped_pedestrian">
        <walk from="5669962#6" to="109295313#1"/>
    </person>
    <person id="ped171" depart="631.53" type="ped_pedestrian">
        <walk from="-438389786#1" to="109295311#0"/>
    </person>
    <person id="ped172" depart="635.23" type="ped_pedestrian">
        <walk from="25162679#2" to="5671429#6"/>
    </person>
    <person id="ped173" depart="638.92" type="ped_pedestrian">
        <walk from="570158629" to="118400726#5"/>
    </person>
    <person id="ped174" depart="642.61" type="ped_pedestrian">
        <walk from="451808494#1" to="420598248"/>
    </person>
    <person id="ped175" depart="646.31" type="ped_pedestrian">
        <walk from="610292624" to="430404710"/>
    </person>
    <person id="ped176" depart="650.00" type="ped_pedestrian">
        <walk from="5672604#4" to="-5671774#3"/>
    </person>
    <person id="ped177" depart="653.69" type="ped_pedestrian">
        <walk from="570158629" to="109295305"/>
    </person>
    <person id="ped178" depart="657.39" type="ped_pedestrian">
        <walk from="570158629" to="118400726#2"/>
    </person>
    <person id="ped179" depart="661.08" type="ped_pedestrian">
        <walk from="-5671774#19" to="420598262"/>
    </person>
    <person id="ped180" depart="664.77" type="ped_pedestrian">
        <walk from="561084838#0" to="25162679#1"/>
    </person>
    <person id="ped181" depart="668.47" type="ped_pedestrian">
        <walk from="451808493#3" to="430404709#1"/>
    </person>
    <person id="ped182" depart="672.16" type="ped_pedestrian">
        <walk from="420598238" to="438388090#1"/>
    </person>
    <person id="ped183" depart="675.85" type="ped_pedestrian">
        <walk from="118400726#2" to="546665397"/>
    </person>
    <person id="ped184" depart="679.54" type="ped_pedestrian">
        <walk from="-438388090#1" to="5672604#2"/>
    </person>
    <person id="ped185" depart="683.24" type="ped_pedestrian">
        <walk from="430404710" to="561084838#0"/>
    </person>
    <person id="ped186" depart="686.93" type="ped_pedestrian">
        <walk from="561084838#4" to="496992369#0"/>
    </person>
    <person id="ped187" depart="690.62" type="ped_pedestrian">
        <walk from="418994849" to="-561084838#5"/>
    </person>
    <person id="ped188" depart="694.32" type="ped_pedestrian">
        <walk from="496992369#0" to="25162679#2"/>
    </person>
    <person id="ped189" depart="698.01" type="ped_pedestrian">
        <walk from="25162679#1" to="5671429#5"/>
    </person>
    <person id="ped190" depart="701.70" type="ped_pedestrian">
        <walk from="561084838#0" to="25162679#0"/>
    </person>
    <person id="ped191" depart="705.40" type="ped_pedestrian">
        <walk from="25162679#0" to="420598248"/>
    </person>
    <person id="ped192" depart="709.09" type="ped_pedestrian">
        <walk from="420598248" to="22902609"/>
    </person>
    <person id="ped193" depart="712.78" type="ped_pedestrian">
        <walk from="-5672948#0" to="420598256"/>
    </person>
    <person id="ped194" depart="716.48" type="ped_pedestrian">
        <walk from="5672604#4" to="546665391#0"/>
    </person>
    <person id="ped195" depart="720.17" type="ped_pedestrian">
        <walk from="5672604#0" to="451808493#3"/>
    </person>
    <person id="ped196" depart="723.86" type="ped_pedestrian">
        <walk from="25162679#0" to="430404710"/>
    </person>
    <person id="ped197" depart="727.56" type="ped_pedestrian">
        <walk from="-438388090#1" to="22902609"/>
    </person>
    <person id="ped198" depart="731.25" type="ped_pedestrian">
        <walk from="420598262" to="438389786#0"/>
    </person>
    <person id="ped199" depart="734.94" type="ped_pedestrian">
        <walk from="496992363#0" to="430404705#1"/>
    </person>
    <person id="ped200" depart="738.64" type="ped_pedestrian">
        <walk from="430404704#0" to="109295313#0"/>
    </person>
    <person id="ped201" depart="742.33" type="ped_pedestrian">
        <walk from="430404705#1" to="5671774#4"/>
    </person>
    <person id="ped202" depart="746.02" type="ped_pedestrian">
        <walk from="5669962#6" to="109295305"/>
    </person>
    <person id="ped203" depart="749.72" type="ped_pedestrian">
        <walk from="-561084838#9" to="430404709#1"/>
    </person>
    <person id="ped204" depart="753.41" type="ped_pedestrian">
        <walk from="451808494#0" to="25162679#2"/>
    </person>
    <person id="ped205" depart="757.10" type="ped_pedestrian">
        <walk from="5671429#0" to="561084838#6"/>
    </person>
    <person id="ped206" depart="760.79" type="ped_pedestrian">
        <walk from="496992369#0" to="109295313#0"/>
    </person>
    <person id="ped207" depart="764.49" type="ped_pedestrian">
        <walk from="109295311#1" to="-438389786#1"/>
    </person>
    <person id="ped208" depart="768.18" type="ped_pedestrian">
        <walk from="118400726#0" to="430404705#1"/>
    </person>
    <person id="ped209" depart="771.87" type="ped_pedestrian">
        <walk from="5671429#5" to="-561084838#7"/>
    </person>
    <person id="ped210" depart="775.57" type="ped_pedestrian">
        <walk from="420598256" to="451808494#0"/>
    </person>
    <person id="ped211" depart="779.26" type="ped_pedestrian">
        <walk from="109295311#0" to="546665391#1"/>
    </person>
    <person id="ped212" depart="782.95" type="ped_pedestrian">
        <walk from="430404709#0" to="118400726#0"/>
    </person>
    <person id="ped213" depart="786.65" type="ped_pedestrian">
        <walk from="496992363#0" to="-438388090#1"/>
    </person>
    <person id="ped214" depart="790.34" type="ped_pedestrian">
        <walk from="561084838#6" to="561084838#8"/>
    </person>
    <person id="ped215" depart="794.03" type="ped_pedestrian">
        <walk from="-5671774#19" to="420598262"/>
    </person>
    <person id="ped216" depart="797.73" type="ped_pedestrian">
        <walk from="109295305" to="570158629"/>
    </person>
    <person id="ped217" depart="801.42" type="ped_pedestrian">
        <walk from="430404709#1" to="-561084838#3"/>
    </person>
    <person id="ped218" depart="805.11" type="ped_pedestrian">
        <walk from="118400726#0" to="5671429#5"/>
    </person>
    <person id="ped219" depart="808.81" type="ped_pedestrian">
        <walk from="430404704#1" to="5669962#6"/>
    </person>
    <person id="ped220" depart="812.50" type="ped_pedestrian">
        <walk from="496992369#0" to="630828594#0"/>
    </person>
    <person id="ped221" depart="816.19" type="ped_pedestrian">
        <walk from="451808493#2" to="5672604#6"/>
    </person>
    <person id="ped222" depart="819.89" type="ped_pedestrian">
        <walk from="5671774#4" to="451808493#3"/>
    </person>
    <person id="ped223" depart="823.58" type="ped_pedestrian">
        <walk from="561084838#0" to="430404709#0"/>
    </person>
    <person id="ped224" depart="827.27" type="ped_pedestrian">
        <walk from="5671429#0" to="430404710"/>
    </person>
    <person id="ped225" depart="830.96" type="ped_pedestrian">
        <walk from="5671774#4" to="561084838#4"/>
    </person>
    <person id="ped226" depart="834.66" type="ped_pedestrian">
        <walk from="430404705#1" to="118400726#2"/>
    </person>
    <person id="ped227" depart="838.35" type="ped_pedestrian">
        <walk from="118400726#0" to="451808494#1"/>
    </person>
    <person id="ped228" depart="842.04" type="ped_pedestrian">
        <walk from="561084838#8" to="430404709#2"/>
    </person>
    <person id="ped229" depart="845.74" type="ped_pedestrian">
        <walk from="451808494#0" to="118400726#5"/>
    </person>
    <person id="ped230" depart="849.43" type="ped_pedestrian">
        <walk from="-561084838#7" to="22902609"/>
    </person>
    <person id="ped231" depart="853.12" type="ped_pedestrian">
        <walk from="118400726#5" to="25162679#1"/>
    </person>
    <person id="ped232" depart="856.82" type="ped_pedestrian">
        <walk from="430404710" to="-5672948#0"/>
    </person>
    <person id="ped233" depart="860.51" type="ped_pedestrian">
        <walk from="109295313#1" to="546665391#1"/>
    </person>