<?xml version="1.0" encoding="UTF-8"?>

<!-- generated on 11/11/18 13:48:48 by Eclipse SUMO polyconvert Version 1.0.1
<configuration xmlns:xsi="http://www.w3.org/2001/XMLSchema-instance" xsi:noNamespaceSchemaLocation="http://sumo.dlr.de/xsd/polyconvertConfiguration.xsd">

    <input>
        <net-file value="C:\Users\rahul\Sumo\tools\2018-11-11-13-48-45\osm.net.xml"/>
        <osm-files value="C:\Users\rahul\Sumo\tools\2018-11-11-13-48-45\osm_bbox.osm.xml"/>
        <osm.keep-full-type value="true"/>
        <type-file value="C:\Users\rahul\Sumo\data\typemap\osmPolyconvert.typ.xml"/>
    </input>

    <output>
        <output-file value="C:\Users\rahul\Sumo\tools\2018-11-11-13-48-45\osm.poly.xml"/>
    </output>

    <processing>
        <poi-layer-offset value="5"/>
    </processing>

    <report>
        <verbose value="true"/>
    </report>

</configuration>
-->

<additional xmlns:xsi="http://www.w3.org/2001/XMLSchema-instance" xsi:noNamespaceSchemaLocation="http://sumo.dlr.de/xsd/additional_file.xsd">
    <location netOffset="-584819.45,-4508577.05" convBoundary="0.00,-0.00,2288.12,4003.20" origBoundary="-73.995489,40.723714,-73.963451,40.765845" projParameter="+proj=utm +zone=18 +ellps=WGS84 +datum=WGS84 +units=m +no_defs"/>

    <poly id="241844915" type="building.yes" color="255,230,230" fill="1" layer="-1.00" shape="609.335316,757.468245 602.868754,760.890919 609.859959,774.238556 611.234621,774.409826 615.110408,781.804118 619.783657,779.359984 615.883179,771.909893 616.268936,770.681998 616.062428,770.279941 609.839687,758.406638 609.335316,757.468245"/>
    <poly id="241844920" type="building.yes" color="255,230,230" fill="1" layer="-1.00" shape="683.268573,775.762001 681.568794,776.686083 679.959997,775.579518 680.435960,775.318555 672.296948,760.447718 664.766605,764.568611 672.798025,779.249462 673.231510,779.010213 673.477413,781.122460 671.956121,781.948682 674.958619,787.434468 686.271065,781.247791 683.268573,775.762001"/>
    <poly id="241844925" type="building.yes" color="255,230,230" fill="1" layer="-1.00" shape="665.527169,785.038671 663.521344,786.136862 662.493805,785.891870 661.939544,784.886284 662.814957,784.407882 654.907375,769.972718 647.334573,774.115343 655.242164,788.550499 655.981569,788.148244 656.510881,789.120234 656.373336,790.062333 654.172140,791.258194 657.356585,797.079135 668.711608,790.859616 665.527169,785.038671"/>
    <poly id="241844926" type="building.yes" color="255,230,230" fill="1" layer="-1.00" shape="653.791628,790.565473 652.346726,791.359274 651.141853,791.112238 651.312280,790.248234 643.603384,776.159539 637.713351,779.388990 645.587816,793.768243 645.936215,793.583522 645.896422,794.837608 644.256018,795.740179 647.506745,801.672901 647.845930,802.287430 657.356585,797.079135 654.172140,791.258194 653.791628,790.565473"/>
    <poly id="241844932" type="amenity.place_of_worship" color="237,199,199" fill="1" layer="-1.00" shape="723.379058,717.738463 714.515728,717.336448 705.593286,716.933762 705.227582,720.082559 703.928401,719.956551 701.067745,749.766176 704.248256,750.069315 703.911339,753.651429 707.091849,753.954569 706.140980,763.902244 716.829668,764.935928 727.307065,759.394706 728.459589,751.003663 721.980472,750.384901 724.707236,721.939304 722.994656,721.775216 723.379058,717.738463"/>
    <poly id="241844932#1" type="building.church" color="255,230,230" fill="1" layer="-1.00" shape="723.379058,717.738463 714.515728,717.336448 705.593286,716.933762 705.227582,720.082559 703.928401,719.956551 701.067745,749.766176 704.248256,750.069315 703.911339,753.651429 707.091849,753.954569 706.140980,763.902244 716.829668,764.935928 727.307065,759.394706 728.459589,751.003663 721.980472,750.384901 724.707236,721.939304 722.994656,721.775216 723.379058,717.738463"/>
    <poly id="241844938" type="building.yes" color="255,230,230" fill="1" layer="-1.00" shape="566.243535,735.655702 567.858096,734.797226 568.529292,732.984201 561.783511,720.316665 566.958332,717.589617 564.817214,713.568181 566.355267,712.753232 566.844363,707.685178 570.970433,708.021353 571.573127,700.423314 559.101758,699.435927 561.202451,703.301465 548.712113,709.830039 549.488647,711.337771 538.993411,716.967854 540.804556,720.308251 539.648685,720.938869 541.360411,724.111589 540.043327,724.806963 560.338400,762.932320 576.279380,754.511735 573.427903,749.105446 571.029748,744.670268 570.591521,743.854763 566.243535,735.655702"/>
    <poly id="241844944" type="building.yes" color="255,230,230" fill="1" layer="-1.00" shape="615.626087,755.375810 609.839687,758.406638 616.062428,770.279941 621.840250,767.260121 615.626087,755.375810"/>
    <poly id="241844947" type="building.yes" color="255,230,230" fill="1" layer="-1.00" shape="592.294509,730.127128 586.354563,733.289432 592.910158,745.599532 598.850097,742.437234 592.294509,730.127128"/>
    <poly id="241844950" type="building.yes" color="255,230,230" fill="1" layer="-1.00" shape="645.328918,739.298040 638.293341,742.991679 644.920876,755.646824 651.956316,751.964292 645.328918,739.298040"/>
    <poly id="241844952" type="building.yes" color="255,230,230" fill="1" layer="-1.00" shape="655.598124,733.498968 651.731928,735.530503 659.582489,750.520113 663.448552,748.499683 655.598124,733.498968"/>
    <poly id="241844953" type="amenity.place_of_worship" color="237,199,199" fill="1" layer="-1.00" shape="628.034570,788.925216 618.464432,794.166170 627.753366,811.126304 637.323490,805.885363 628.034570,788.925216"/>
    <poly id="241844953#1" type="building.church" color="255,230,230" fill="1" layer="-1.00" shape="628.034570,788.925216 618.464432,794.166170 627.753366,811.126304 637.323490,805.885363 628.034570,788.925216"/>
    <poly id="241844955" type="building.yes" color="255,230,230" fill="1" layer="-1.00" shape="576.723252,741.638340 571.029748,744.670268 573.427903,749.105446 576.279380,754.511735 581.939613,751.435019 576.723252,741.638340"/>
    <poly id="241844961" type="building.yes" color="255,230,230" fill="1" layer="-1.00" shape="621.318963,752.399420 615.626087,755.375810 621.840250,767.260121 627.533247,764.272635 621.318963,752.399420"/>
    <poly id="241844963" type="building.yes" color="255,230,230" fill="1" layer="-1.00" shape="581.906765,738.889198 576.723252,741.638340 581.939613,751.435019 587.123249,748.674780 581.906765,738.889198"/>
    <poly id="241844964" type="building.yes" color="255,230,230" fill="1" layer="-1.00" shape="626.960920,749.444651 621.318963,752.399420 627.533247,764.272635 633.183643,761.317968 626.960920,749.444651"/>
    <poly id="241844967" type="building.yes" color="255,230,230" fill="1" layer="-1.00" shape="665.666979,728.230504 659.557724,731.424104 666.928987,745.497819 673.029789,742.304128 665.666979,728.230504"/>
    <poly id="241844968" type="building.yes" color="255,230,230" fill="1" layer="-1.00" shape="687.155184,761.707073 682.608056,764.197029 690.631253,778.855601 695.178375,776.365650 687.742326,762.790755 687.155184,761.707073"/>
    <poly id="241844971" type="building.yes" color="255,230,230" fill="1" layer="-1.00" shape="682.608056,764.197029 678.247862,766.589224 683.268573,775.762001 686.271065,781.247791 690.631253,778.855601 682.608056,764.197029"/>
    <poly id="241844973" type="building.yes" color="255,230,230" fill="1" layer="-1.00" shape="638.523891,785.271377 633.636841,787.946181 642.619702,804.347699 647.506745,801.672901 644.256018,795.740179 638.523891,785.271377"/>
    <poly id="241844974" type="building.yes" color="255,230,230" fill="1" layer="-1.00" shape="675.971784,747.911339 683.270564,744.098647 672.957456,724.406604 665.666979,728.230504 673.029789,742.304128 675.971784,747.911339"/>
    <poly id="241844975" type="building.yes" color="255,230,230" fill="1" layer="-1.00" shape="586.354563,733.289432 580.567519,736.375786 581.906765,738.889198 587.123249,748.674780 592.910158,745.599532 586.354563,733.289432"/>
    <poly id="241844977" type="building.yes" color="255,230,230" fill="1" layer="-1.00" shape="695.575388,777.091870 704.763170,772.057545 696.938564,757.756517 687.742326,762.790755 695.178375,776.365650 695.575388,777.091870"/>
    <poly id="241844981" type="building.yes" color="255,230,230" fill="1" layer="-1.00" shape="659.557724,731.424104 655.598124,733.498968 663.448552,748.499683 667.408146,746.424824 666.928987,745.497819 659.557724,731.424104"/>
    <poly id="241844988" type="building.yes" color="255,230,230" fill="1" layer="-1.00" shape="596.258131,764.356347 587.419071,769.183881 588.527361,771.217241 594.184975,781.563019 599.867395,791.953497 608.714882,787.126075 603.347094,777.283222 596.258131,764.356347"/>
    <poly id="241844989" type="building.yes" color="255,230,230" fill="1" layer="-1.00" shape="637.979231,742.399644 632.116298,745.473981 640.231481,760.955116 646.094277,757.891885 644.920876,755.646824 638.293341,742.991679 637.979231,742.399644"/>
    <poly id="241844993" type="building.yes" color="255,230,230" fill="1" layer="-1.00" shape="578.518580,803.542468 593.715046,831.150968 620.054340,816.699680 617.035183,811.191521 613.180398,804.174942 610.194240,798.733780 606.339571,791.706104 592.979305,798.979525 591.581092,796.454329 591.122149,796.704391 585.750976,799.617897 578.518580,803.542468"/>
    <poly id="241844994" type="building.yes" color="255,230,230" fill="1" layer="-1.00" shape="665.769046,770.653053 659.522153,774.067109 665.527169,785.038671 668.711608,790.859616 674.958619,787.434468 671.956121,781.948682 665.769046,770.653053"/>
    <poly id="241844998" type="building.yes" color="255,230,230" fill="1" layer="-1.00" shape="599.867395,791.953497 594.184975,781.563019 588.527361,771.217241 583.640576,773.869877 582.399986,771.590745 565.929468,780.527020 578.518580,803.542468 585.750976,799.617897 591.122149,796.704391 591.581092,796.454329 599.867395,791.953497"/>
    <poly id="241845000" type="building.yes" color="255,230,230" fill="1" layer="-1.00" shape="632.116298,745.473981 626.440429,748.439458 626.960920,749.444651 633.183643,761.317968 634.844525,764.501228 640.528958,761.524755 640.231481,760.955116 632.116298,745.473981"/>
    <poly id="241845004" type="building.yes" color="255,230,230" fill="1" layer="-1.00" shape="602.868754,760.890919 596.258131,764.356347 603.347094,777.283222 604.944256,777.934447 608.844869,785.373431 613.390679,782.994437 609.448742,775.477260 609.859959,774.238556 602.868754,760.890919"/>
    <poly id="241845009" type="building.yes" color="255,230,230" fill="1" layer="-1.00" shape="651.004677,734.145451 644.436486,737.589122 645.328918,739.298040 651.956316,751.964292 656.311363,760.274510 662.879541,756.830849 659.582489,750.520113 651.731928,735.530503 651.004677,734.145451"/>
    <poly id="241845011" type="building.yes" color="255,230,230" fill="1" layer="-1.00" shape="633.636841,787.946181 631.800935,788.957523 630.551918,786.678286 627.670690,788.254893 628.034570,788.925216 637.323490,805.885363 637.894130,806.935544 642.619702,804.347699 633.636841,787.946181"/>
    <poly id="247850703" type="building.yes" color="255,230,230" fill="1" layer="-1.00" shape="700.004205,992.791478 685.123590,1000.835444 687.785787,1005.795513 702.682900,997.785049 700.004205,992.791478"/>
    <poly id="247850704" type="building.yes" color="255,230,230" fill="1" layer="-1.00" shape="714.875505,1028.745339 716.603458,1031.962701 718.940471,1030.701814 717.204203,1027.473253 723.645643,1024.017085 719.462146,1016.230600 708.011119,994.926645 704.824423,996.632923 702.682900,997.785049 687.785787,1005.795513 703.420364,1034.885910 713.439470,1029.505923 714.875505,1028.745339"/>
    <poly id="247850706" type="building.yes" color="255,230,230" fill="1" layer="-1.00" shape="716.603458,1031.962701 714.875505,1028.745339 713.439470,1029.505923 703.420364,1034.885910 705.156636,1038.114468 705.658045,1037.842698 716.603458,1031.962701"/>
    <poly id="247850708" type="building.yes" color="255,230,230" fill="1" layer="-1.00" shape="811.208880,848.359076 804.138258,852.163174 795.843959,856.619279 796.877460,858.540787 792.169396,861.073226 794.120613,864.703964 814.202033,853.911427 811.208880,848.359076"/>
    <poly id="247850711" type="building.yes" color="255,230,230" fill="1" layer="-1.00" shape="817.376984,859.810047 814.202033,853.911427 794.120613,864.703964 796.278451,868.725664 801.054452,866.160706 802.071446,868.048718 817.376984,859.810047"/>
    <poly id="247850713" type="building.yes" color="255,230,230" fill="1" layer="-1.00" shape="820.932037,866.434700 817.376984,859.810047 802.071446,868.048718 792.442937,873.222161 795.998133,879.835702 796.482539,879.574843 820.932037,866.434700"/>
    <poly id="247850715" type="building.yes" color="255,230,230" fill="1" layer="-1.00" shape="824.751790,873.539806 820.932037,866.434700 796.482539,879.574843 800.302180,886.691038 809.794798,881.582649 824.751790,873.539806"/>
    <poly id="247850717" type="building.yes" color="255,230,230" fill="1" layer="-1.00" shape="711.799483,986.454986 706.094605,975.842108 679.402310,990.177990 685.123590,1000.835444 700.004205,992.791478 711.799483,986.454986"/>
    <poly id="247850719" type="building.yes" color="255,230,230" fill="1" layer="-1.00" shape="689.222707,944.183941 683.197675,947.411796 691.672418,963.174702 697.697570,959.935753 697.135267,958.896765 689.222707,944.183941"/>
    <poly id="247850722" type="building.yes" color="255,230,230" fill="1" layer="-1.00" shape="830.448149,879.034575 826.876351,872.398621 824.751790,873.539806 809.794798,881.582649 810.629730,883.146596 802.479912,887.526646 804.365100,891.023399 812.506600,886.632152 813.358163,888.218497 829.062867,879.784621 830.448149,879.034575"/>
    <poly id="247850724" type="building.yes" color="255,230,230" fill="1" layer="-1.00" shape="693.675818,941.781725 689.222707,944.183941 697.135267,958.896765 701.588244,956.505654 698.826754,951.366801 697.140099,948.227636 696.081765,946.261446 693.675818,941.781725"/>
    <poly id="247850726" type="building.yes" color="255,230,230" fill="1" layer="-1.00" shape="706.993456,946.975733 705.650805,947.692987 704.460309,945.469922 705.306803,943.836566 704.248470,941.870375 703.177701,942.446438 696.778178,930.548807 694.483616,931.787987 693.656853,930.246352 689.807252,932.311362 697.033544,945.750623 696.081765,946.261446 697.140099,948.227636 698.877063,948.469715 700.076004,950.692877 698.826754,951.366801 701.588244,956.505654 702.059452,957.388161 710.226149,952.997096 706.993456,946.975733"/>
    <poly id="247850729" type="building.yes" color="255,230,230" fill="1" layer="-1.00" shape="731.276860,1000.157759 726.832343,1002.548949 740.970277,1028.857718 745.414783,1026.466536 736.692411,1010.223312 731.276860,1000.157759"/>
    <poly id="247850731" type="building.yes" color="255,230,230" fill="1" layer="-1.00" shape="715.287600,942.519531 713.953392,943.236881 712.754582,941.002616 713.600950,939.380362 712.534174,937.414072 711.446387,938.001040 704.228556,924.561863 700.718898,926.442052 701.545659,927.983688 699.030135,929.342442 705.429656,941.240075 704.248470,941.870375 705.306803,943.836566 707.247712,943.969978 708.446651,946.193141 706.993456,946.975733 710.226149,952.997096 718.520417,948.529797 717.974620,947.524304 715.287600,942.519531"/>
    <poly id="247850734" type="building.yes" color="255,230,230" fill="1" layer="-1.00" shape="745.414783,1026.466536 751.660868,1023.108058 743.004522,1006.998814 742.851629,1007.074764 739.635235,1001.109084 736.728987,1002.663154 739.333192,1007.522653 739.919559,1007.207458 740.457032,1008.201754 736.692411,1010.223312 745.414783,1026.466536"/>
    <poly id="247850736" type="building.yes" color="255,230,230" fill="1" layer="-1.00" shape="850.639219,916.493455 846.753499,909.254345 829.570030,918.492660 827.785435,919.449034 831.671168,926.688134 848.455171,917.667252 850.639219,916.493455"/>
    <poly id="247850738" type="building.yes" color="255,230,230" fill="1" layer="-1.00" shape="708.854291,884.503087 702.183205,888.089847 708.797702,900.389639 711.385588,905.204529 713.816167,903.889207 711.658296,899.867531 715.890478,897.584902 708.854291,884.503087"/>
    <poly id="247850741" type="building.yes" color="255,230,230" fill="1" layer="-1.00" shape="714.338138,930.385007 710.012575,932.710968 712.534174,937.414072 713.600950,939.380362 715.287600,942.519531 717.974620,947.524304 722.308622,945.198446 714.338138,930.385007"/>
    <poly id="247850743" type="building.yes" color="255,230,230" fill="1" layer="-1.00" shape="852.026799,924.314319 848.455171,917.667252 831.671168,926.688134 835.242806,933.335192 839.049972,931.291970 852.026799,924.314319"/>
    <poly id="247850745" type="building.yes" color="255,230,230" fill="1" layer="-1.00" shape="715.499923,880.927142 708.854291,884.503087 715.890478,897.584902 722.544418,894.020162 715.499923,880.927142"/>
    <poly id="247850748" type="building.yes" color="255,230,230" fill="1" layer="-1.00" shape="718.442871,928.167522 714.338138,930.385007 722.308622,945.198446 726.413221,942.992066 718.442871,928.167522"/>
    <poly id="247850752" type="building.yes" color="255,230,230" fill="1" layer="-1.00" shape="762.107493,996.061627 761.521124,996.376821 758.304868,990.400032 755.721543,991.780188 758.491165,996.941362 759.043501,996.647979 759.737953,997.943848 756.024243,999.943779 764.705262,1016.108834 771.044892,1012.695941 762.107493,996.061627"/>
    <poly id="247850755" type="building.yes" color="255,230,230" fill="1" layer="-1.00" shape="852.026799,924.314319 839.049972,931.291970 842.844852,938.352392 855.821671,931.374747 852.026799,924.314319"/>
    <poly id="247850758" type="building.yes" color="255,230,230" fill="1" layer="-1.00" shape="722.213500,877.318680 715.499923,880.927142 722.544418,894.020162 725.322419,899.192520 725.908794,898.877323 728.752936,904.172569 732.356269,902.226861 728.354511,894.786638 730.878369,893.439092 722.213500,877.318680"/>
    <poly id="247850759" type="building.yes" color="255,230,230" fill="1" layer="-1.00" shape="722.640878,925.917809 718.442871,928.167522 726.413221,942.992066 730.611350,940.731257 722.640878,925.917809"/>
    <poly id="247850760" type="building.yes" color="255,230,230" fill="1" layer="-1.00" shape="762.770882,981.758584 756.295353,985.236529 758.874861,990.040240 762.107493,996.061627 771.044892,1012.695941 777.528849,1009.218106 762.770882,981.758584"/>
    <poly id="247850761" type="building.yes" color="255,230,230" fill="1" layer="-1.00" shape="858.014160,930.201049 855.821671,931.374747 842.844852,938.352392 840.550395,939.580427 844.245989,946.462067 861.709743,937.082699 858.014160,930.201049"/>
    <poly id="247850762" type="building.yes" color="255,230,230" fill="1" layer="-1.00" shape="729.156492,873.590748 722.213500,877.318680 730.878369,893.439092 731.118132,893.885946 738.061241,890.146921 729.156492,873.590748"/>
    <poly id="247850763" type="building.yes" color="255,230,230" fill="1" layer="-1.00" shape="728.058988,921.861421 722.169670,925.035301 722.640878,925.917809 730.611350,940.731257 736.500532,937.568485 735.285095,935.311820 732.118431,929.424434 731.126377,927.570026 728.058988,921.861421"/>
    <poly id="247850764" type="building.yes" color="255,230,230" fill="1" layer="-1.00" shape="766.850013,979.563035 763.595229,981.312911 762.770882,981.758584 777.528849,1009.218106 781.607969,1007.022565 772.042024,989.237458 766.850013,979.563035"/>
    <poly id="247850765" type="building.yes" color="255,230,230" fill="1" layer="-1.00" shape="735.972184,869.916863 729.156492,873.590748 738.061241,890.146921 744.885239,886.484243 735.972184,869.916863"/>
    <poly id="247850766" type="building.yes" color="255,230,230" fill="1" layer="-1.00" shape="742.678408,931.344850 741.701162,931.866476 738.997391,926.850398 739.511876,925.446360 738.511378,923.591853 737.160148,924.320105 736.556394,923.214023 736.836850,923.061829 734.430920,918.582094 734.609403,918.484234 733.757827,916.897899 734.311203,915.782966 733.401541,914.107143 732.094590,913.925528 730.540231,911.032130 724.090119,914.499296 726.917752,919.761045 728.072575,919.952005 728.924152,921.538339 729.306581,921.331811 732.316139,926.928727 731.126377,927.570026 732.118431,929.424434 733.397100,929.861072 736.100745,934.888248 735.285095,935.311820 736.500532,937.568485 737.128977,938.730363 744.513843,934.763298 742.678408,931.344850"/>
    <poly id="247850767" type="building.yes" color="255,230,230" fill="1" layer="-1.00" shape="776.512025,986.835486 772.042024,989.237458 781.607969,1007.022565 786.077963,1004.620599 782.779082,998.487413 776.512025,986.835486"/>
    <poly id="247850768" type="building.yes" color="255,230,230" fill="1" layer="-1.00" shape="762.101996,946.057378 748.615435,953.306854 757.710028,970.231620 771.196569,962.982160 765.483568,952.346937 762.101996,946.057378"/>
    <poly id="247850769" type="building.yes" color="255,230,230" fill="1" layer="-1.00" shape="742.473263,866.428091 735.972184,869.916863 744.885239,886.484243 751.377992,882.984280 742.473263,866.428091"/>
    <poly id="247850770" type="building.yes" color="255,230,230" fill="1" layer="-1.00" shape="795.089139,992.190302 792.701179,993.472782 791.651064,991.528877 792.509446,991.061396 783.712671,974.684030 774.891642,979.422730 783.432170,995.319733 784.332900,994.841638 785.506987,997.020119 782.779082,998.487413 786.077963,1004.620599 798.255725,998.077717 795.089139,992.190302"/>
    <poly id="247850771" type="building.yes" color="255,230,230" fill="1" layer="-1.00" shape="750.573275,927.095020 749.570438,927.638554 746.866671,922.622473 747.406618,921.207627 746.381302,919.308424 745.064103,920.014863 742.170338,914.630219 742.416761,914.499837 741.465775,912.745821 742.206081,911.533126 739.378455,906.271371 732.426916,910.010297 733.981146,912.914797 733.401541,914.107143 734.311203,915.782966 735.737911,915.832736 736.589487,917.419072 736.878516,917.255874 739.292761,921.746808 739.547757,921.605423 740.143065,922.711408 738.511378,923.591853 739.511876,925.446360 741.104906,925.720094 743.808676,930.736173 742.678408,931.344850 744.513843,934.763298 752.408707,930.513469 750.573275,927.095020"/>
    <poly id="247850772" type="building.yes" color="255,230,230" fill="1" layer="-1.00" shape="749.305857,862.754414 742.473263,866.428091 751.377992,882.984280 758.219020,879.310708 751.463848,866.765000 749.305857,862.754414"/>
    <poly id="247850773" type="building.yes" color="255,230,230" fill="1" layer="-1.00" shape="758.051688,923.073536 756.980911,923.649591 754.285591,918.633605 754.885035,917.186140 753.859720,915.286936 752.296097,916.123755 751.800199,915.185449 752.029606,915.065973 749.640186,910.619730 749.946232,910.445628 749.003692,908.691708 749.684504,907.511634 748.659186,905.612431 747.552849,905.610764 745.998494,902.717362 739.378455,906.271371 742.206081,911.533126 743.471322,911.669852 744.413863,913.423771 744.728353,913.249766 747.622117,918.634410 746.381302,919.308424 747.406618,921.207627 748.659827,921.655076 751.363593,926.671157 750.573275,927.095020 752.408707,930.513469 759.887118,926.491987 759.275308,925.352504 758.051688,923.073536"/>
    <poly id="247850775" type="building.yes" color="255,230,230" fill="1" layer="-1.00" shape="782.155429,958.146015 780.430216,959.080883 779.242264,958.834021 778.572503,957.593946 779.872682,956.898419 778.475332,954.306581 781.007752,952.948049 780.288479,951.607483 777.756059,952.966016 775.044260,947.916524 776.293518,947.242613 774.639902,944.170424 772.622682,940.405702 762.101996,946.057378 765.483568,952.346937 766.826224,951.629694 772.977415,963.080435 771.634761,963.797677 774.768242,969.629188 785.280461,963.977434 783.668305,960.972334 782.155429,958.146015"/>
    <poly id="247850778" type="building.yes" color="255,230,230" fill="1" layer="-1.00" shape="807.617760,985.251809 805.833184,986.208189 805.324716,987.090490 804.084617,984.778017 804.849344,984.376069 796.068963,968.043286 787.400812,972.706021 795.949766,988.603136 796.612520,988.255521 797.910449,990.679682 795.089139,992.190302 798.255725,998.077717 810.866987,991.295615 807.617760,985.251809"/>
    <poly id="247850782" type="building.yes" color="255,230,230" fill="1" layer="-1.00" shape="791.877527,956.559644 790.480903,956.099430 785.222618,946.313208 786.114909,945.835015 784.957445,943.678931 783.473940,943.428656 782.382619,941.395459 782.849137,939.757724 780.831919,935.993001 772.622682,940.405702 774.639902,944.170424 776.501864,944.558293 777.593186,946.591488 776.748214,948.091628 777.450984,949.398696 779.048366,949.295015 780.288479,951.607483 781.007752,952.948049 784.447133,959.349307 783.668305,960.972334 785.280461,963.977434 785.801427,964.938236 794.010646,960.525549 791.877527,956.559644"/>
    <poly id="247850785" type="building.yes" color="255,230,230" fill="1" layer="-1.00" shape="756.781866,906.505541 750.858489,909.701209 753.859720,915.286936 754.885035,917.186140 758.051688,923.073536 759.275308,925.352504 765.198548,922.167943 756.781866,906.505541"/>
    <poly id="247850788" type="building.yes" color="255,230,230" fill="1" layer="-1.00" shape="768.502116,850.352826 761.644039,854.037294 764.670108,859.667719 765.190956,860.639621 767.689371,859.302895 769.109568,859.186064 772.011654,864.581916 774.649154,869.486219 773.954778,870.377478 771.218384,871.844680 774.599985,878.134243 781.458046,874.449787 778.539467,869.020434 768.502116,850.352826"/>
    <poly id="247850792" type="building.yes" color="255,230,230" fill="1" layer="-1.00" shape="760.829885,900.423869 755.153053,903.478052 756.781866,906.505541 765.198548,922.167943 770.875370,919.113768 768.047640,913.863102 760.829885,900.423869"/>
    <poly id="247850795" type="building.yes" color="255,230,230" fill="1" layer="-1.00" shape="820.186831,978.469234 817.501518,979.903702 816.368888,977.792308 817.048661,977.433788 808.433722,961.402660 799.689172,966.097805 808.477607,982.463992 809.115029,982.116085 810.206465,984.138185 809.402465,984.284329 807.617760,985.251809 810.866987,991.295615 823.452683,984.535442 820.186831,978.469234"/>
    <poly id="247850798" type="building.yes" color="255,230,230" fill="1" layer="-1.00" shape="775.096757,846.809651 768.502116,850.352826 778.539467,869.020434 780.587638,867.911660 781.248962,869.151637 783.840907,867.760485 783.179583,866.520509 785.134225,865.466167 775.096757,846.809651"/>
    <poly id="247850800" type="building.yes" color="255,230,230" fill="1" layer="-1.00" shape="779.146307,907.896144 777.336255,908.863339 776.117721,908.338571 775.431579,907.053899 776.179551,906.640652 767.779249,891.022836 760.377310,895.000785 768.777623,910.618593 769.380888,910.303594 770.075475,911.588363 769.551899,913.047805 768.047640,913.863102 770.875370,919.113768 771.487179,920.253252 782.585840,914.286300 779.146307,907.896144"/>
    <poly id="247850803" type="building.yes" color="255,230,230" fill="1" layer="-1.00" shape="785.134225,865.466167 789.009479,863.379296 786.595242,858.888347 788.167454,858.040531 784.810676,851.795658 783.321640,852.022713 784.107897,850.488589 780.552675,843.875055 775.096757,846.809651 785.134225,865.466167"/>
    <poly id="247850806" type="building.yes" color="255,230,230" fill="1" layer="-1.00" shape="832.296236,971.270589 829.542850,972.748675 828.583834,970.961247 829.544064,970.450539 821.036482,954.631577 812.232421,959.359327 820.971583,975.602836 821.702406,975.211600 822.719379,977.099615 820.186831,978.469234 823.452683,984.535442 835.851475,977.873050 835.735564,977.671872 832.296236,971.270589"/>
    <poly id="247850809" type="building.yes" color="255,230,230" fill="1" layer="-1.00" shape="799.576272,951.741390 798.675536,952.219484 794.980031,945.326766 795.872324,944.848574 796.790077,944.359575 796.161898,943.175490 794.292358,944.175300 793.101760,941.963321 793.623544,940.659290 792.937280,939.385718 791.555619,939.092208 790.464299,937.059011 790.837291,935.475707 788.811632,931.710884 780.831919,935.993001 782.849137,939.757724 784.311653,940.363026 785.402973,942.396223 784.957445,943.678931 786.114909,945.835015 786.930818,945.389247 792.188973,955.186571 791.877527,956.559644 794.010646,960.525549 801.998785,956.243544 801.254568,954.869381 799.576272,951.741390"/>
    <poly id="247850813" type="building.yes" color="255,230,230" fill="1" layer="-1.00" shape="790.499989,901.787819 788.545355,902.842159 787.326949,902.306288 786.632364,901.021518 787.363192,900.630279 778.962906,885.012450 771.450409,889.055725 779.850707,904.673545 780.717541,904.206160 781.412127,905.490930 781.092494,906.841704 779.146307,907.896144 782.585840,914.286300 793.939515,908.177980 790.499989,901.787819"/>
    <poly id="247850818" type="building.yes" color="255,230,230" fill="1" layer="-1.00" shape="804.316095,945.723242 802.902325,945.285031 801.166071,942.056451 800.775069,942.273979 799.171359,939.268973 799.460261,939.116879 797.699184,935.843604 798.032519,934.037799 794.998321,928.385060 788.811632,931.710884 790.837291,935.475707 791.895602,937.441910 793.399859,936.626618 794.449853,938.581624 792.937280,939.385718 793.623544,940.659290 794.309680,941.943964 795.227562,941.443863 796.161898,943.175490 796.790077,944.359575 795.872324,944.848574 797.170517,947.250533 798.674645,946.446343 799.666808,948.289660 798.162552,949.104951 799.576272,951.741390 801.254568,954.869381 807.441244,951.543568 806.159686,949.164004 804.316095,945.723242"/>
    <poly id="247850823" type="building.yes" color="255,230,230" fill="1" layer="-1.00" shape="813.498311,943.353511 811.903235,943.257372 805.231247,930.834694 806.148379,929.668456 803.114057,924.026814 794.998321,928.385060 798.032519,934.037799 799.588453,933.867031 807.442852,948.479387 806.159686,949.164004 807.441244,951.543568 807.871116,952.347890 815.986834,947.989658 814.473839,945.174433 813.498311,943.353511"/>