<?xml version="1.0" encoding="UTF-8"?>

<!-- generated on 11/11/18 13:48:48 by Eclipse SUMO netconvert Version 1.0.1
<configuration xmlns:xsi="http://www.w3.org/2001/XMLSchema-instance" xsi:noNamespaceSchemaLocation="http://sumo.dlr.de/xsd/netconvertConfiguration.xsd">

    <input>
        <type-files value="C:\Users\rahul\Sumo\data\typemap\osmNetconvert.typ.xml,C:\Users\rahul\Sumo\data\typemap\osmNetconvertUrbanDe.typ.xml,C:\Users\rahul\Sumo\data\typemap\osmNetconvertPedestrians.typ.xml"/>
        <osm-files value="C:\Users\rahul\Sumo\tools\2018-11-11-13-48-45\osm_bbox.osm.xml"/>
    </input>

    <output>
        <output-file value="C:\Users\rahul\Sumo\tools\2018-11-11-13-48-45\osm.net.xml"/>
        <output.street-names value="true"/>
        <output.original-names value="true"/>
    </output>

    <projection>
        <proj.utm value="true"/>
    </projection>

    <processing>
        <geometry.remove value="true"/>
        <roundabouts.guess value="true"/>
    </processing>

    <tls_building>
        <tls.discard-simple value="true"/>
        <tls.join value="true"/>
        <tls.guess-signals value="true"/>
        <tls.default-type value="actuated"/>
    </tls_building>

    <ramp_guessing>
        <ramps.guess value="true"/>
    </ramp_guessing>

    <junctions>
        <junctions.join value="true"/>
        <junctions.corner-detail value="5"/>
    </junctions>

    <pedestrian>
        <crossings.guess value="true"/>
    </pedestrian>

    <report>
        <verbose value="true"/>
    </report>

</configuration>
-->

<net version="1.0" junctionCornerDetail="5" walkingareas="true" limitTurnSpeed="5.50" xmlns:xsi="http://www.w3.org/2001/XMLSchema-instance" xsi:noNamespaceSchemaLocation="http://sumo.dlr.de/xsd/net_file.xsd">

    <location netOffset="-584819.45,-4508577.05" convBoundary="0.00,0.00,1970.41,2352.93" origBoundary="-73.995489,40.723714,-73.963451,40.765845" projParameter="+proj=utm +zone=18 +ellps=WGS84 +datum=WGS84 +units=m +no_defs"/>

    <type id="highway.bridleway" priority="1" numLanes="1" speed="2.78" allow="pedestrian" oneway="1" width="2.00"/>
    <type id="highway.bus_guideway" priority="1" numLanes="1" speed="13.89" allow="bus" oneway="1"/>
    <type id="highway.cycleway" priority="1" numLanes="1" speed="8.33" allow="bicycle" oneway="0" width="1.00"/>
    <type id="highway.footway" priority="1" numLanes="1" speed="2.78" allow="pedestrian" oneway="1" width="2.00"/>
    <type id="highway.ford" priority="1" numLanes="1" speed="2.78" allow="army" oneway="0"/>
    <type id="highway.living_street" priority="3" numLanes="1" speed="2.78" disallow="tram rail_urban rail rail_electric ship" oneway="0"/>
    <type id="highway.motorway" priority="13" numLanes="2" speed="27.78" allow="private emergency authority army vip passenger hov taxi bus coach delivery truck trailer motorcycle evehicle custom1 custom2" oneway="1"/>
    <type id="highway.motorway_link" priority="12" numLanes="1" speed="16.67" allow="private emergency authority army vip passenger hov taxi bus coach delivery truck trailer motorcycle evehicle custom1 custom2" oneway="1"/>
    <type id="highway.path" priority="1" numLanes="1" speed="2.78" allow="bicycle pedestrian" oneway="1" width="2.00"/>
    <type id="highway.pedestrian" priority="1" numLanes="1" speed="2.78" allow="pedestrian" oneway="1" width="2.00"/>
    <type id="highway.primary" priority="9" numLanes="2" speed="13.89" disallow="tram rail_urban rail rail_electric pedestrian ship" oneway="0" sidewalkWidth="3.00"/>
    <type id="highway.primary_link" priority="8" numLanes="1" speed="13.89" disallow="tram rail_urban rail rail_electric pedestrian ship" oneway="0" sidewalkWidth="3.00"/>
    <type id="highway.raceway" priority="14" numLanes="2" speed="83.33" allow="vip" oneway="0"/>
    <type id="highway.residential" priority="4" numLanes="1" speed="13.89" disallow="tram rail_urban rail rail_electric pedestrian ship" oneway="0" sidewalkWidth="2.00"/>
    <type id="highway.secondary" priority="7" numLanes="2" speed="13.89" disallow="tram rail_urban rail rail_electric pedestrian ship" oneway="0" sidewalkWidth="3.00"/>
    <type id="highway.secondary_link" priority="6" numLanes="1" speed="13.89" disallow="tram rail_urban rail rail_electric pedestrian ship" oneway="0" sidewalkWidth="3.00"/>
    <type id="highway.service" priority="2" numLanes="1" speed="5.56" allow="delivery bicycle pedestrian" oneway="0"/>
    <type id="highway.stairs" priority="1" numLanes="1" speed="1.39" allow="pedestrian" oneway="1" width="2.00"/>
    <type id="highway.step" priority="1" numLanes="1" speed="1.39" allow="pedestrian" oneway="1" width="2.00"/>
    <type id="highway.steps" priority="1" numLanes="1" speed="1.39" allow="pedestrian" oneway="1" width="2.00"/>
    <type id="highway.tertiary" priority="6" numLanes="1" speed="13.89" disallow="tram rail_urban rail rail_electric pedestrian ship" oneway="0" sidewalkWidth="3.00"/>
    <type id="highway.tertiary_link" priority="5" numLanes="1" speed="13.89" disallow="tram rail_urban rail rail_electric pedestrian ship" oneway="0" sidewalkWidth="2.00"/>
    <type id="highway.track" priority="1" numLanes="1" speed="5.56" disallow="tram rail_urban rail rail_electric ship" oneway="0"/>
    <type id="highway.trunk" priority="11" numLanes="2" speed="13.89" disallow="tram rail_urban rail rail_electric bicycle pedestrian ship" oneway="0"/>
    <type id="highway.trunk_link" priority="10" numLanes="1" speed="13.89" disallow="tram rail_urban rail rail_electric bicycle pedestrian ship" oneway="0"/>
    <type id="highway.unclassified" priority="5" numLanes="1" speed="13.89" disallow="tram rail_urban rail rail_electric pedestrian ship" oneway="0" sidewalkWidth="2.00"/>
    <type id="highway.unsurfaced" priority="1" numLanes="1" speed="8.33" disallow="tram rail_urban rail rail_electric ship" oneway="0"/>
    <type id="railway.light_rail" priority="15" numLanes="1" speed="27.78" allow="rail_urban" oneway="1"/>
    <type id="railway.preserved" priority="15" numLanes="1" speed="27.78" allow="rail" oneway="1"/>
    <type id="railway.rail" priority="15" numLanes="1" speed="83.33" allow="rail rail_electric" oneway="1"/>
    <type id="railway.subway" priority="15" numLanes="1" speed="27.78" allow="rail_urban" oneway="1"/>
    <type id="railway.tram" priority="15" numLanes="1" speed="13.89" allow="tram" oneway="1"/>

    <edge id=":1251612261_w0" function="walkingarea">
        <lane id=":1251612261_w0_0" index="0" allow="pedestrian" speed="1.00" length="0.34" width="2.00" shape="1015.60,1103.02 1014.64,1101.27 1014.64,1101.27 1014.95,1103.24 1015.47,1103.09 1015.37,1103.14 1015.29,1103.17 1015.20,1103.20 1015.10,1103.22"/>
    </edge>
    <edge id=":1251612267_w0" function="walkingarea">
        <lane id=":1251612267_w0_0" index="0" allow="pedestrian" speed="1.00" length="3.96" width="2.00" shape="979.26,1033.66 978.54,1031.79 976.48,1030.99 974.68,1031.87 974.27,1034.32 975.57,1035.84 978.40,1033.99 977.77,1034.26 977.27,1034.51 976.81,1034.82 976.27,1035.24"/>
    </edge>
    <edge id=":1251612316_w0" function="walkingarea">
        <lane id=":1251612316_w0_0" index="0" allow="pedestrian" speed="1.00" length="0.31" width="2.00" shape="1008.73,1081.99 1008.51,1080.00 1007.91,1080.17 1008.73,1081.99"/>
    </edge>
    <edge id=":1251612317_w0" function="walkingarea">
        <lane id=":1251612317_w0_0" index="0" allow="pedestrian" speed="1.00" length="0.29" width="2.00" shape="1050.73,1134.45 1048.80,1133.92 1048.80,1133.92 1050.50,1134.98 1050.70,1134.57 1050.67,1134.66 1050.64,1134.73 1050.61,1134.80 1050.56,1134.88"/>
    </edge>
    <edge id=":4191922370_w0" function="walkingarea">
        <lane id=":4191922370_w0_0" index="0" allow="pedestrian" speed="1.00" length="3.02" width="2.00" shape="928.63,1055.93 930.39,1054.99 929.85,1053.57 928.92,1051.81 928.65,1051.76 926.89,1052.71 925.64,1053.54 926.57,1055.31 928.36,1055.52 928.08,1055.24 927.77,1055.08 927.41,1055.04 927.02,1055.12"/>
    </edge>
    <edge id=":4191922373_w0" function="walkingarea">
        <lane id=":4191922373_w0_0" index="0" allow="pedestrian" speed="1.00" length="4.04" width="2.00" shape="974.54,1031.59 976.34,1030.71 976.98,1028.61 976.04,1026.84 971.62,1029.18 972.56,1030.95 974.30,1031.19 974.03,1030.90 973.72,1030.74 973.38,1030.69 972.99,1030.76"/>
    </edge>
    <edge id=":4191926878_w0" function="walkingarea">
        <lane id=":4191926878_w0_0" index="0" allow="pedestrian" speed="1.00" length="3.54" width="2.00" shape="949.89,1044.66 951.65,1043.73 952.28,1041.70 951.34,1039.93 949.94,1040.50 948.17,1041.44 946.92,1042.27 947.85,1044.04 949.63,1044.26 949.35,1043.97 949.04,1043.81 948.69,1043.77 948.29,1043.85"/>
    </edge>
    <edge id=":42430886_0" function="internal">
        <lane id=":42430886_0_0" index="0" disallow="tram rail_urban rail rail_electric pedestrian ship" speed="11.18" length="8.35" shape="542.98,786.57 539.01,779.22"/>
        <lane id=":42430886_0_1" index="1" disallow="tram rail_urban rail rail_electric pedestrian ship" speed="11.18" length="8.35" shape="545.79,785.05 541.82,777.70"/>
        <lane id=":42430886_0_2" index="2" disallow="tram rail_urban rail rail_electric pedestrian ship" speed="11.18" length="8.35" shape="548.61,783.53 544.64,776.18"/>
    </edge>
    <edge id=":42430886_3" function="internal">
        <lane id=":42430886_3_0" index="0" disallow="tram rail_urban rail rail_electric pedestrian ship" speed="8.64" length="2.36" shape="548.61,783.53 548.81,781.83 549.25,781.35"/>
    </edge>
    <edge id=":42430886_4" function="internal">
        <lane id=":42430886_4_0" index="0" disallow="tram rail_urban rail rail_electric pedestrian ship" speed="3.65" length="2.34" shape="548.61,783.53 548.74,782.10 549.26,781.36"/>
    </edge>
    <edge id=":42430886_14" function="internal">
        <lane id=":42430886_14_0" index="0" speed="8.64" length="14.29" shape="549.25,781.35 550.92,779.54 554.95,776.66 560.89,773.19"/>
    </edge>
    <edge id=":42430886_15" function="internal">
        <lane id=":42430886_15_0" index="0" speed="3.65" length="2.34" shape="549.26,781.36 550.15,781.34 551.43,782.01"/>
    </edge>
    <edge id=":42430886_5" function="internal">
        <lane id=":42430886_5_0" index="0" disallow="tram rail_urban rail rail_electric pedestrian ship" speed="6.51" length="4.89" shape="553.08,771.61 554.48,773.40 556.25,774.26 556.90,774.24"/>
    </edge>
    <edge id=":42430886_6" function="internal">
        <lane id=":42430886_6_0" index="0" disallow="tram rail_urban rail rail_electric pedestrian ship" speed="11.18" length="8.36" shape="553.08,771.61 557.06,778.98"/>
        <lane id=":42430886_6_1" index="1" disallow="tram rail_urban rail rail_electric pedestrian ship" speed="11.18" length="8.36" shape="550.27,773.14 554.24,780.50"/>
        <lane id=":42430886_6_2" index="2" disallow="tram rail_urban rail rail_electric pedestrian ship" speed="11.18" length="8.36" shape="547.45,774.66 551.43,782.01"/>
    </edge>
    <edge id=":42430886_9" function="internal">
        <lane id=":42430886_9_0" index="0" disallow="tram rail_urban rail rail_electric pedestrian ship" speed="3.65" length="2.34" shape="547.45,774.66 547.32,776.09 546.81,776.83"/>
    </edge>
    <edge id=":42430886_16" function="internal">
        <lane id=":42430886_16_0" index="0" speed="6.51" length="4.18" shape="556.90,774.24 558.39,774.19 560.89,773.19"/>
    </edge>
    <edge id=":42430886_17" function="internal">
        <lane id=":42430886_17_0" index="0" speed="3.65" length="2.34" shape="546.81,776.83 545.91,776.86 544.64,776.18"/>
    </edge>
    <edge id=":42430886_10" function="internal">
        <lane id=":42430886_10_0" index="0" disallow="tram rail_urban rail rail_electric pedestrian ship" speed="6.56" length="4.67" shape="536.13,786.75 538.32,785.18 539.43,783.55"/>
    </edge>
    <edge id=":42430886_11" function="internal">
        <lane id=":42430886_11_0" index="0" disallow="tram rail_urban rail rail_electric pedestrian ship" speed="11.18" length="28.23" shape="536.13,786.75 560.89,773.19"/>
    </edge>
    <edge id=":42430886_12" function="internal">
        <lane id=":42430886_12_0" index="0" disallow="tram rail_urban rail rail_electric pedestrian ship" speed="9.32" length="19.73" shape="536.13,786.75 543.48,782.94 548.95,780.63 552.53,779.82 554.24,780.50"/>
    </edge>
    <edge id=":42430886_13" function="internal">
        <lane id=":42430886_13_0" index="0" disallow="tram rail_urban rail rail_electric pedestrian ship" speed="8.59" length="16.63" shape="536.13,786.75 542.25,783.62 546.84,781.78 549.90,781.25 551.43,782.01"/>
    </edge>
    <edge id=":42430886_18" function="internal">
        <lane id=":42430886_18_0" index="0" speed="6.56" length="4.49" shape="539.43,783.55 539.53,783.40 539.76,781.41 539.01,779.22"/>
    </edge>
    <edge id=":42430886_c0" function="crossing" crossingEdges="561084838#4 -561084838#5">
        <lane id=":42430886_c0_0" index="0" allow="pedestrian" speed="1.00" length="19.20" width="4.00" shape="557.52,776.46 540.62,785.57"/>
    </edge>
    <edge id=":42430886_c1" function="crossing" crossingEdges="5669962#6">
        <lane id=":42430886_c1_0" index="0" allow="pedestrian" speed="1.00" length="3.20" width="4.00" shape="558.36,772.74 559.90,775.55"/>
    </edge>
    <edge id=":42430886_c2" function="crossing" crossingEdges="-561084838#3 561084838#0">
        <lane id=":42430886_c2_0" index="0" allow="pedestrian" speed="1.00" length="19.20" width="4.00" shape="538.55,781.74 555.44,772.61"/>
    </edge>
    <edge id=":42430886_c3" function="crossing" crossingEdges="5669962#0">
        <lane id=":42430886_c3_0" index="0" allow="pedestrian" speed="1.00" length="3.20" width="4.00" shape="538.65,787.19 537.11,784.39"/>
    </edge>
    <edge id=":42430886_w0" function="walkingarea">
        <lane id=":42430886_w0_0" index="0" allow="pedestrian" speed="1.00" length="2.28" width="4.00" shape="536.90,788.15 538.93,788.75 541.57,787.33 541.24,786.98 540.73,786.82 540.04,786.86 539.17,787.10 538.13,787.53"/>
    </edge>
    <edge id=":42430886_w1" function="walkingarea">
        <lane id=":42430886_w1_0" index="0" allow="pedestrian" speed="1.00" length="2.34" width="4.00" shape="558.47,778.22 561.11,776.79 561.65,774.59 560.46,775.29 559.53,775.96 558.87,776.58 558.47,777.17 558.34,777.71"/>
    </edge>
    <edge id=":42430886_w2" function="walkingarea">
        <lane id=":42430886_w2_0" index="0" allow="pedestrian" speed="1.00" length="3.29" width="4.00" shape="560.12,771.78 559.16,770.03 557.13,769.43 554.49,770.85 555.11,771.74 555.86,772.33 556.73,772.63 557.74,772.64 558.86,772.36"/>
    </edge>
    <edge id=":42430886_w3" function="walkingarea">
        <lane id=":42430886_w3_0" index="0" allow="pedestrian" speed="1.00" length="3.35" width="4.00" shape="537.60,779.99 534.96,781.41 534.40,783.60 535.36,785.35 536.52,784.59 537.37,783.78 537.90,782.92 538.12,782.00 538.02,781.02"/>
    </edge>
    <edge id=":42431459_0" function="internal">
        <lane id=":42431459_0_0" index="0" disallow="tram rail_urban rail rail_electric pedestrian ship" speed="11.18" length="8.23" shape="739.93,1151.92 736.02,1144.67"/>
        <lane id=":42431459_0_1" index="1" disallow="tram rail_urban rail rail_electric pedestrian ship" speed="11.18" length="8.23" shape="742.75,1150.40 738.84,1143.16"/>
        <lane id=":42431459_0_2" index="2" disallow="tram rail_urban rail rail_electric pedestrian ship" speed="11.18" length="8.23" shape="745.56,1148.88 741.66,1141.64"/>
    </edge>
    <edge id=":42431459_3" function="internal">
        <lane id=":42431459_3_0" index="0" disallow="tram rail_urban rail rail_electric pedestrian ship" speed="3.65" length="2.34" shape="745.56,1148.88 745.70,1147.45 746.21,1146.72"/>
    </edge>
    <edge id=":42431459_11" function="internal">
        <lane id=":42431459_11_0" index="0" speed="3.65" length="2.34" shape="746.21,1146.72 747.11,1146.69 748.38,1147.36"/>
    </edge>
    <edge id=":42431459_4" function="internal">
        <lane id=":42431459_4_0" index="0" disallow="tram rail_urban rail rail_electric pedestrian ship" speed="6.51" length="4.44" shape="756.97,1136.93 754.77,1138.48 753.76,1139.91"/>
    </edge>
    <edge id=":42431459_5" function="internal">
        <lane id=":42431459_5_0" index="0" disallow="tram rail_urban rail rail_electric pedestrian ship" speed="9.33" length="19.70" shape="756.97,1136.93 749.59,1140.69 744.11,1142.98 740.53,1143.80 738.84,1143.16"/>
    </edge>
    <edge id=":42431459_6" function="internal">
        <lane id=":42431459_6_0" index="0" disallow="tram rail_urban rail rail_electric pedestrian ship" speed="8.61" length="16.60" shape="756.97,1136.93 750.83,1140.03 746.23,1141.84 743.17,1142.38 741.66,1141.64"/>
    </edge>
    <edge id=":42431459_12" function="internal">
        <lane id=":42431459_12_0" index="0" speed="6.51" length="4.62" shape="753.76,1139.91 753.54,1140.23 753.29,1142.18 754.01,1144.32"/>
    </edge>
    <edge id=":42431459_7" function="internal">
        <lane id=":42431459_7_0" index="0" disallow="tram rail_urban rail rail_electric pedestrian ship" speed="11.18" length="8.22" shape="750.12,1137.10 754.01,1144.32"/>
        <lane id=":42431459_7_1" index="1" disallow="tram rail_urban rail rail_electric pedestrian ship" speed="11.18" length="8.22" shape="747.30,1138.61 751.20,1145.84"/>
        <lane id=":42431459_7_2" index="2" disallow="tram rail_urban rail rail_electric pedestrian ship" speed="11.18" length="8.22" shape="744.48,1140.13 748.38,1147.36"/>
    </edge>
    <edge id=":42431459_10" function="internal">
        <lane id=":42431459_10_0" index="0" disallow="tram rail_urban rail rail_electric pedestrian ship" speed="3.65" length="2.34" shape="744.48,1140.13 744.34,1141.56 743.83,1142.29"/>
    </edge>
    <edge id=":42431459_13" function="internal">
        <lane id=":42431459_13_0" index="0" speed="3.65" length="2.34" shape="743.83,1142.29 742.93,1142.32 741.66,1141.64"/>
    </edge>
    <edge id=":42431459_c0" function="crossing" crossingEdges="5671774#4 -5671774#19">
        <lane id=":42431459_c0_0" index="0" allow="pedestrian" speed="1.00" length="19.20" width="4.00" shape="754.47,1141.80 737.57,1150.92"/>
    </edge>
    <edge id=":42431459_c1" function="crossing" crossingEdges="451808493#3">
        <lane id=":42431459_c1_0" index="0" allow="pedestrian" speed="1.00" length="3.20" width="4.00" shape="754.45,1136.48 755.97,1139.29"/>
    </edge>
    <edge id=":42431459_c2" function="crossing" crossingEdges="-5671774#3 5671774#0">
        <lane id=":42431459_c2_0" index="0" allow="pedestrian" speed="1.00" length="19.20" width="4.00" shape="735.56,1147.19 752.47,1138.10"/>
    </edge>
    <edge id=":42431459_w0" function="walkingarea">
        <lane id=":42431459_w0_0" index="0" allow="pedestrian" speed="1.00" length="5.06" width="4.00" shape="736.51,1148.95 734.61,1145.43 731.97,1146.85 735.88,1154.11 738.52,1152.68 736.62,1149.16"/>
    </edge>
    <edge id=":42431459_w1" function="walkingarea">
        <lane id=":42431459_w1_0" index="0" allow="pedestrian" speed="1.00" length="3.29" width="4.00" shape="755.42,1143.56 758.06,1142.14 758.67,1140.11 757.72,1138.35 756.56,1139.08 755.71,1139.87 755.17,1140.72 754.94,1141.61 755.02,1142.56"/>
    </edge>
    <edge id=":42431459_w2" function="walkingarea">
        <lane id=":42431459_w2_0" index="0" allow="pedestrian" speed="1.00" length="2.29" width="4.00" shape="756.21,1135.53 754.17,1134.92 751.53,1136.34 751.86,1136.69 752.36,1136.84 753.05,1136.80 753.92,1136.57 754.98,1136.14"/>
    </edge>
    <edge id=":42431461_0" function="internal">
        <lane id=":42431461_0_0" index="0" disallow="tram rail_urban rail rail_electric pedestrian ship" speed="6.51" length="9.01" shape="869.58,1082.55 868.11,1080.56 866.35,1079.52 864.32,1079.43 862.00,1080.28"/>
    </edge>
    <edge id=":42431461_1" function="internal">
        <lane id=":42431461_1_0" index="0" disallow="tram rail_urban rail rail_electric pedestrian ship" speed="11.18" length="9.17" shape="870.07,1075.92 862.00,1080.28"/>
    </edge>
    <edge id=":42431461_c0" function="crossing" crossingEdges="22902609">
        <lane id=":42431461_c0_0" index="0" allow="pedestrian" speed="1.00" length="3.20" width="4.00" shape="870.03,1080.03 867.22,1081.55"/>
    </edge>
    <edge id=":42431461_w0" function="walkingarea">
        <lane id=":42431461_w0_0" index="0" allow="pedestrian" speed="1.00" length="3.53" width="4.00" shape="862.76,1081.69 863.71,1083.45 866.42,1084.26 868.17,1083.31 867.49,1082.29 866.72,1081.57 865.87,1081.15 864.92,1081.03 863.88,1081.21"/>
    </edge>
    <edge id=":42431461_w1" function="walkingarea">
        <lane id=":42431461_w1_0" index="0" allow="pedestrian" speed="1.00" length="2.22" width="4.00" shape="870.99,1081.78 871.79,1079.09 870.83,1077.33 870.35,1077.72 870.07,1078.25 870.00,1078.92 870.12,1079.73 870.45,1080.69"/>
    </edge>
    <edge id=":42434352_0" function="internal">
        <lane id=":42434352_0_0" index="0" disallow="tram rail_urban rail rail_electric pedestrian ship" speed="3.65" length="4.67" shape="568.60,1141.90 567.17,1141.77 566.44,1141.26 566.40,1140.37 567.08,1139.09"/>
    </edge>
    <edge id=":42434352_w0" function="walkingarea">
        <lane id=":42434352_w0_0" index="0" allow="pedestrian" speed="1.00" length="15.80" width="3.00" shape="564.79,1134.87 563.35,1132.24 572.33,1148.76 570.90,1146.12"/>
    </edge>
    <edge id=":42436941_0" function="internal">
        <lane id=":42436941_0_0" index="0" disallow="tram rail_urban rail rail_electric pedestrian ship" speed="6.47" length="5.06" shape="657.01,998.61 655.65,996.70 653.90,995.76 653.17,995.77"/>
    </edge>
    <edge id=":42436941_1" function="internal">
        <lane id=":42436941_1_0" index="0" disallow="tram rail_urban rail rail_electric pedestrian ship" speed="11.18" length="8.57" shape="657.01,998.61 653.23,991.08"/>
        <lane id=":42436941_1_1" index="1" disallow="tram rail_urban rail rail_electric pedestrian ship" speed="11.18" length="8.57" shape="659.89,997.22 656.05,989.56"/>
        <lane id=":42436941_1_2" index="2" disallow="tram rail_urban rail rail_electric pedestrian ship" speed="11.18" length="8.57" shape="662.78,995.84 658.87,988.04"/>
    </edge>
    <edge id=":42436941_4" function="internal">
        <lane id=":42436941_4_0" index="0" disallow="tram rail_urban rail rail_electric pedestrian ship" speed="3.65" length="2.34" shape="662.78,995.84 662.98,994.41 663.52,993.70"/>
    </edge>
    <edge id=":42436941_14" function="internal">
        <lane id=":42436941_14_0" index="0" speed="6.47" length="4.18" shape="653.17,995.77 651.74,995.80 649.18,996.80"/>
    </edge>
    <edge id=":42436941_15" function="internal">
        <lane id=":42436941_15_0" index="0" speed="3.65" length="2.34" shape="663.52,993.70 664.42,993.71 665.66,994.45"/>
    </edge>
    <edge id=":42436941_5" function="internal">
        <lane id=":42436941_5_0" index="0" disallow="tram rail_urban rail rail_electric pedestrian ship" speed="6.90" length="5.69" shape="674.15,983.31 671.97,984.92 670.79,986.85 670.73,987.56"/>
    </edge>
    <edge id=":42436941_6" function="internal">
        <lane id=":42436941_6_0" index="0" disallow="tram rail_urban rail rail_electric pedestrian ship" speed="11.18" length="28.38" shape="674.15,983.31 649.18,996.80"/>
    </edge>
    <edge id=":42436941_7" function="internal">
        <lane id=":42436941_7_0" index="0" disallow="tram rail_urban rail rail_electric pedestrian ship" speed="9.33" length="19.68" shape="674.15,983.31 666.79,987.07 661.31,989.37 657.74,990.20 656.05,989.56"/>
    </edge>
    <edge id=":42436941_8" function="internal">
        <lane id=":42436941_8_0" index="0" disallow="tram rail_urban rail rail_electric pedestrian ship" speed="8.61" length="16.59" shape="674.15,983.31 668.02,986.41 663.43,988.23 660.38,988.77 658.87,988.04"/>
    </edge>
    <edge id=":42436941_16" function="internal">
        <lane id=":42436941_16_0" index="0" speed="6.90" length="4.24" shape="670.73,987.56 670.61,989.10 671.43,991.67"/>
    </edge>
    <edge id=":42436941_9" function="internal">
        <lane id=":42436941_9_0" index="0" disallow="tram rail_urban rail rail_electric pedestrian ship" speed="11.18" length="9.01" shape="667.31,983.48 671.43,991.67"/>
        <lane id=":42436941_9_1" index="1" disallow="tram rail_urban rail rail_electric pedestrian ship" speed="11.18" length="9.01" shape="664.50,985.00 668.54,993.06"/>
        <lane id=":42436941_9_2" index="2" disallow="tram rail_urban rail rail_electric pedestrian ship" speed="11.18" length="9.01" shape="661.68,986.52 665.66,994.45"/>
    </edge>
    <edge id=":42436941_12" function="internal">
        <lane id=":42436941_12_0" index="0" disallow="tram rail_urban rail rail_electric pedestrian ship" speed="8.65" length="2.37" shape="661.68,986.52 661.45,988.19 660.98,988.68"/>
    </edge>
    <edge id=":42436941_13" function="internal">
        <lane id=":42436941_13_0" index="0" disallow="tram rail_urban rail rail_electric pedestrian ship" speed="3.65" length="2.34" shape="661.68,986.52 661.55,987.96 661.03,988.69"/>
    </edge>
    <edge id=":42436941_17" function="internal">
        <lane id=":42436941_17_0" index="0" speed="8.65" length="14.39" shape="660.98,988.68 659.29,990.46 655.20,993.33 649.18,996.80"/>
    </edge>
    <edge id=":42436941_18" function="internal">
        <lane id=":42436941_18_0" index="0" speed="3.65" length="2.34" shape="661.03,988.69 660.14,988.72 658.87,988.04"/>
    </edge>
    <edge id=":42436941_c0" function="crossing" crossingEdges="496992369#0 -496992369#2">
        <lane id=":42436941_c0_0" index="0" allow="pedestrian" speed="1.00" length="19.20" width="4.00" shape="672.00,989.17 654.70,997.50"/>
    </edge>
    <edge id=":42436941_c1" function="crossing" crossingEdges="25162679#3">
        <lane id=":42436941_c1_0" index="0" allow="pedestrian" speed="1.00" length="3.20" width="4.00" shape="671.63,982.86 673.16,985.67"/>
    </edge>
    <edge id=":42436941_c2" function="crossing" crossingEdges="-561084838#9 561084838#8">
        <lane id=":42436941_c2_0" index="0" allow="pedestrian" speed="1.00" length="19.20" width="4.00" shape="652.78,993.60 669.67,984.48"/>
    </edge>
    <edge id=":42436941_c3" function="crossing" crossingEdges="496992363#0">
        <lane id=":42436941_c3_0" index="0" allow="pedestrian" speed="1.00" length="3.20" width="4.00" shape="651.70,997.26 650.18,994.44"/>
    </edge>
    <edge id=":42436941_w0" function="walkingarea">
        <lane id=":42436941_w0_0" index="0" allow="pedestrian" speed="1.00" length="3.32" width="4.00" shape="649.94,998.21 650.90,999.97 652.87,1000.61 655.57,999.31 654.97,998.36 654.24,997.73 653.37,997.39 652.37,997.36 651.22,997.63"/>
    </edge>
    <edge id=":42436941_w1" function="walkingarea">
        <lane id=":42436941_w1_0" index="0" allow="pedestrian" speed="1.00" length="3.83" width="4.00" shape="672.87,990.98 675.57,989.67 675.87,986.48 674.91,984.72 673.74,985.50 672.90,986.38 672.40,987.37 672.22,988.47 672.38,989.67"/>
    </edge>
    <edge id=":42436941_w2" function="walkingarea">
        <lane id=":42436941_w2_0" index="0" allow="pedestrian" speed="1.00" length="2.28" width="4.00" shape="673.39,981.91 671.36,981.30 668.72,982.72 669.05,983.07 669.56,983.22 670.25,983.18 671.12,982.95 672.16,982.52"/>
    </edge>
    <edge id=":42436941_w3" function="walkingarea">
        <lane id=":42436941_w3_0" index="0" allow="pedestrian" speed="1.00" length="2.38" width="4.00" shape="651.83,991.84 649.19,993.27 648.42,995.40 649.66,994.68 650.63,994.01 651.33,993.39 651.77,992.83 651.93,992.31"/>
    </edge>
    <edge id=":42436942_0" function="internal">
        <lane id=":42436942_0_0" index="0" disallow="tram rail_urban rail rail_electric pedestrian ship" speed="6.51" length="4.87" shape="853.07,892.42 851.67,890.64 849.91,889.78 849.27,889.80"/>
    </edge>
    <edge id=":42436942_1" function="internal">
        <lane id=":42436942_1_0" index="0" disallow="tram rail_urban rail rail_electric pedestrian ship" speed="11.18" length="8.20" shape="853.07,892.42 849.17,885.20"/>
        <lane id=":42436942_1_1" index="1" disallow="tram rail_urban rail rail_electric pedestrian ship" speed="11.18" length="8.20" shape="855.89,890.90 851.99,883.68"/>
    </edge>
    <edge id=":42436942_5" function="internal">
        <lane id=":42436942_5_0" index="0" speed="6.51" length="4.18" shape="849.27,889.80 847.78,889.84 845.28,890.83"/>
    </edge>
    <edge id=":42436942_3" function="internal">
        <lane id=":42436942_3_0" index="0" disallow="tram rail_urban rail rail_electric pedestrian ship" speed="11.18" length="12.40" shape="856.19,884.94 845.28,890.83"/>
    </edge>
    <edge id=":42436942_4" function="internal">
        <lane id=":42436942_4_0" index="0" disallow="tram rail_urban rail rail_electric pedestrian ship" speed="5.04" length="5.00" shape="856.19,884.94 854.91,885.41 853.78,885.36 852.80,884.78 851.99,883.68"/>
    </edge>
    <edge id=":42436942_c0" function="crossing" crossingEdges="420598262">
        <lane id=":42436942_c0_0" index="0" allow="pedestrian" speed="1.00" length="6.40" width="4.00" shape="856.34,888.38 850.71,891.42"/>
    </edge>
    <edge id=":42436942_c1" function="crossing" crossingEdges="25162679#3">
        <lane id=":42436942_c1_0" index="0" allow="pedestrian" speed="1.00" length="3.20" width="4.00" shape="847.80,891.29 846.28,888.47"/>
    </edge>
    <edge id=":42436942_w0" function="walkingarea">
        <lane id=":42436942_w0_0" index="0" allow="pedestrian" speed="1.00" length="3.29" width="4.00" shape="846.04,892.24 846.99,894.00 849.02,894.61 851.66,893.18 851.04,892.30 850.30,891.71 849.42,891.40 848.42,891.39 847.30,891.67"/>
    </edge>
    <edge id=":42436942_w1" function="walkingarea">