<?xml version="1.0" encoding="UTF-8"?>
<!-- generated on 2018-11-11 13:48:49.348894 by $Id$ via randomTrips.py
  options: 
-->
<routes xmlns:xsi="http://www.w3.org/2001/XMLSchema-instance" xsi:noNamespaceSchemaLocation="http://sumo.dlr.de/xsd/routes_file.xsd">
    <vType id="veh_passenger" vClass="passenger">
    </vType>
    <trip id="veh0" depart="0.00" departLane="best" from="5671429#0" to="5669962#9" type="veh_passenger"/>
    <trip id="veh1" depart="3.07" departLane="best" from="5672948#0" to="-561084838#3" type="veh_passenger"/>
    <trip id="veh2" depart="6.13" departLane="best" from="420598256" to="-561084838#3" type="veh_passenger"/>
    <trip id="veh3" depart="9.20" departLane="best" from="-438388090#1" to="-630828594#1" type="veh_passenger"/>
    <trip id="veh4" depart="12.27" departLane="best" from="5672604#0" to="-438389786#1" type="veh_passenger"/>
    <trip id="veh5" depart="15.33" departLane="best" from="5671774#0" to="5669962#9" type="veh_passenger"/>
    <trip id="veh6" depart="18.40" departLane="best" from="25162679#2" to="-630828594#1" type="veh_passenger"/>
    <trip id="veh8" depart="24.53" departLane="best" from="5672604#0" to="561084838#4" type="veh_passenger"/>
    <trip id="veh9" depart="27.60" departLane="best" from="451808494#1" to="5672604#6" type="veh_passenger"/>
    <trip id="veh10" depart="30.67" departLane="best" from="420598238" to="496992363#0" type="veh_passenger"/>
    <trip id="veh11" depart="33.73" departLane="best" from="5672604#0" to="561084838#6" type="veh_passenger"/>
    <trip id="veh12" depart="36.80" departLane="best" from="5672604#0" to="496992363#0" type="veh_passenger"/>
    <trip id="veh13" depart="39.87" departLane="best" from="22902609" to="118400726#5" type="veh_passenger"/>
    <trip id="veh14" depart="42.93" departLane="best" from="-561084838#7" to="118400726#5" type="veh_passenger"/>
    <trip id="veh15" depart="46.00" departLane="best" from="420598238" to="-630828594#1" type="veh_passenger"/>
    <trip id="veh16" depart="49.07" departLane="best" from="25162679#0" to="5672604#6" type="veh_passenger"/>
    <trip id="veh17" depart="52.13" departLane="best" from="5669962#0" to="561084838#4" type="veh_passenger"/>
    <trip id="veh18" depart="55.20" departLane="best" from="-5671774#3" to="5671429#4" type="veh_passenger"/>
    <trip id="veh20" depart="61.33" departLane="best" from="561084838#0" to="5669962#9" type="veh_passenger"/>
    <trip id="veh21" depart="64.40" departLane="best" from="22902609" to="-561084838#3" type="veh_passenger"/>
    <trip id="veh22" depart="67.47" departLane="best" from="25162679#0" to="118400726#5" type="veh_passenger"/>
    <trip id="veh23" depart="70.53" departLane="best" from="22902609" to="5672604#6" type="veh_passenger"/>
    <trip id="veh24" depart="73.60" departLane="best" from="5672604#4" to="118400726#5" type="veh_passenger"/>
    <trip id="veh25" depart="76.67" departLane="best" from="5669962#0" to="420598262" type="veh_passenger"/>
    <trip id="veh26" depart="79.74" departLane="best" from="25162679#0" to="118400726#5" type="veh_passenger"/>
    <trip id="veh27" depart="82.80" departLane="best" from="561084838#0" to="118400726#5" type="veh_passenger"/>
    <trip id="veh28" depart="85.87" departLane="best" from="561084838#0" to="5671774#4" type="veh_passenger"/>
    <trip id="veh29" depart="88.94" departLane="best" from="420598238" to="118400726#0" type="veh_passenger"/>
    <trip id="veh31" depart="95.07" departLane="best" from="630828594#0" to="496992363#0" type="veh_passenger"/>
    <trip id="veh32" depart="98.14" departLane="best" from="630828594#0" to="5671774#4" type="veh_passenger"/>
    <trip id="veh33" depart="101.20" departLane="best" from="-438388090#1" to="5669962#9" type="veh_passenger"/>
    <trip id="veh34" depart="104.27" departLane="best" from="25162679#0" to="561084838#8" type="veh_passenger"/>
    <trip id="veh35" depart="107.34" departLane="best" from="-561084838#9" to="438388090#1" type="veh_passenger"/>
    <trip id="veh36" depart="110.40" departLane="best" from="5672604#4" to="118400726#5" type="veh_passenger"/>
    <trip id="veh37" depart="113.47" departLane="best" from="451808494#0" to="-630828594#1" type="veh_passenger"/>
    <trip id="veh38" depart="116.54" departLane="best" from="5672948#0" to="5671774#4" type="veh_passenger"/>
    <trip id="veh39" depart="119.60" departLane="best" from="25162679#0" to="561084838#8" type="veh_passenger"/>
    <trip id="veh40" depart="122.67" departLane="best" from="561084838#0" to="-630828594#1" type="veh_passenger"/>
    <trip id="veh41" depart="125.74" departLane="best" from="5671429#4" to="496992363#0" type="veh_passenger"/>
    <trip id="veh42" depart="128.80" departLane="best" from="-438388090#1" to="5672604#4" type="veh_passenger"/>
    <trip id="veh43" depart="131.87" departLane="best" from="5672604#4" to="5671774#0" type="veh_passenger"/>
    <trip id="veh44" depart="134.94" departLane="best" from="25162679#0" to="-561084838#3" type="veh_passenger"/>
    <trip id="veh45" depart="138.00" departLane="best" from="5672604#4" to="5672604#6" type="veh_passenger"/>
    <trip id="veh47" depart="144.14" departLane="best" from="-496992369#2" to="5671429#6" type="veh_passenger"/>
    <trip id="veh48" depart="147.20" departLane="best" from="5671429#0" to="-561084838#9" type="veh_passenger"/>
    <trip id="veh49" depart="150.27" departLane="best" from="451808493#3" to="496992363#0" type="veh_passenger"/>
    <trip id="veh50" depart="153.34" departLane="best" from="25162679#0" to="5671774#4" type="veh_passenger"/>
    <trip id="veh51" depart="156.40" departLane="best" from="420598256" to="-630828594#1" type="veh_passenger"/>
    <trip id="veh52" depart="159.47" departLane="best" from="118400726#2" to="118400726#5" type="veh_passenger"/>
    <trip id="veh53" depart="162.54" departLane="best" from="630828594#0" to="5669962#6" type="veh_passenger"/>
    <trip id="veh54" depart="165.60" departLane="best" from="-5671774#19" to="118400726#0" type="veh_passenger"/>
    <trip id="veh55" depart="168.67" departLane="best" from="25162679#2" to="496992363#0" type="veh_passenger"/>
    <trip id="veh56" depart="171.74" departLane="best" from="22902609" to="118400726#0" type="veh_passenger"/>
    <trip id="veh58" depart="177.87" departLane="best" from="5672604#0" to="-561084838#3" type="veh_passenger"/>
    <trip id="veh59" depart="180.94" departLane="best" from="22902609" to="5669962#9" type="veh_passenger"/>
    <trip id="veh60" depart="184.00" departLane="best" from="22902609" to="-561084838#9" type="veh_passenger"/>
    <trip id="veh61" depart="187.07" departLane="best" from="5672948#0" to="496992363#0" type="veh_passenger"/>
    <trip id="veh62" depart="190.14" departLane="best" from="451808493#3" to="5671429#6" type="veh_passenger"/>
    <trip id="veh63" depart="193.20" departLane="best" from="5672604#0" to="-630828594#1" type="veh_passenger"/>
    <trip id="veh64" depart="196.27" departLane="best" from="-561084838#7" to="438388090#1" type="veh_passenger"/>
    <trip id="veh65" depart="199.34" departLane="best" from="5671429#0" to="5669962#9" type="veh_passenger"/>
    <trip id="veh66" depart="202.40" departLane="best" from="630828594#0" to="-561084838#5" type="veh_passenger"/>
    <trip id="veh67" depart="205.47" departLane="best" from="5672604#0" to="118400726#5" type="veh_passenger"/>
    <trip id="veh68" depart="208.54" departLane="best" from="420598256" to="118400726#5" type="veh_passenger"/>
    <trip id="veh69" depart="211.60" departLane="best" from="22902609" to="5672604#4" type="veh_passenger"/>
    <trip id="veh70" depart="214.67" departLane="best" from="420598262" to="5671774#4" type="veh_passenger"/>
    <trip id="veh71" depart="217.74" departLane="best" from="496992369#0" to="-561084838#3" type="veh_passenger"/>
    <trip id="veh72" depart="220.80" departLane="best" from="630828594#0" to="5671774#4" type="veh_passenger"/>
    <trip id="veh73" depart="223.87" departLane="best" from="5672604#0" to="-630828594#1" type="veh_passenger"/>
    <trip id="veh74" depart="226.94" departLane="best" from="451808494#0" to="-630828594#1" type="veh_passenger"/>
    <trip id="veh75" depart="230.00" departLane="best" from="420598238" to="-561084838#3" type="veh_passenger"/>
    <trip id="veh76" depart="233.07" departLane="best" from="420598238" to="5672604#6" type="veh_passenger"/>
    <trip id="veh77" depart="236.14" departLane="best" from="496992369#0" to="5669962#9" type="veh_passenger"/>
    <trip id="veh78" depart="239.21" departLane="best" from="-5671774#19" to="118400726#5" type="veh_passenger"/>
    <trip id="veh79" depart="242.27" departLane="best" from="630828594#0" to="496992363#0" type="veh_passenger"/>
    <trip id="veh80" depart="245.34" departLane="best" from="-438389786#1" to="496992363#0" type="veh_passenger"/>
    <trip id="veh81" depart="248.41" departLane="best" from="451808494#0" to="5671774#4" type="veh_passenger"/>
    <trip id="veh82" depart="251.47" departLane="best" from="-5671774#19" to="5672604#6" type="veh_passenger"/>
    <trip id="veh83" depart="254.54" departLane="best" from="561084838#0" to="5669962#9" type="veh_passenger"/>
    <trip id="veh84" depart="257.61" departLane="best" from="22902609" to="-561084838#7" type="veh_passenger"/>
    <trip id="veh85" depart="260.67" departLane="best" from="5672948#0" to="118400726#2" type="veh_passenger"/>
    <trip id="veh86" depart="263.74" departLane="best" from="420598248" to="496992363#0" type="veh_passenger"/>
    <trip id="veh87" depart="266.81" departLane="best" from="451808494#0" to="5672604#6" type="veh_passenger"/>
    <trip id="veh88" depart="269.87" departLane="best" from="5669962#0" to="118400726#5" type="veh_passenger"/>
    <trip id="veh89" depart="272.94" departLane="best" from="-496992369#2" to="438388090#1" type="veh_passenger"/>
    <trip id="veh90" depart="276.01" departLane="best" from="25162679#0" to="5672604#6" type="veh_passenger"/>
    <trip id="veh91" depart="279.07" departLane="best" from="5672604#4" to="5671774#4" type="veh_passenger"/>
    <trip id="veh92" depart="282.14" departLane="best" from="420598238" to="-630828594#1" type="veh_passenger"/>
    <trip id="veh93" depart="285.21" departLane="best" from="5669962#0" to="-438389786#1" type="veh_passenger"/>
    <trip id="veh94" depart="288.27" departLane="best" from="5672604#0" to="118400726#5" type="veh_passenger"/>
    <trip id="veh95" depart="291.34" departLane="best" from="5669962#0" to="5672604#6" type="veh_passenger"/>
    <trip id="veh96" depart="294.41" departLane="best" from="-5671774#19" to="-561084838#7" type="veh_passenger"/>
    <trip id="veh97" depart="297.47" departLane="best" from="-561084838#9" to="496992363#0" type="veh_passenger"/>
    <trip id="veh98" depart="300.54" departLane="best" from="25162679#0" to="561084838#4" type="veh_passenger"/>
    <trip id="veh99" depart="303.61" departLane="best" from="5671429#0" to="-630828594#1" type="veh_passenger"/>
    <trip id="veh100" depart="306.67" departLane="best" from="561084838#6" to="118400726#5" type="veh_passenger"/>
    <trip id="veh102" depart="312.81" departLane="best" from="5672604#0" to="-561084838#3" type="veh_passenger"/>
    <trip id="veh103" depart="315.87" departLane="best" from="420598256" to="118400726#5" type="veh_passenger"/>
    <trip id="veh104" depart="318.94" departLane="best" from="561084838#8" to="118400726#5" type="veh_passenger"/>
    <trip id="veh105" depart="322.01" departLane="best" from="-496992369#2" to="5671774#4" type="veh_passenger"/>
    <trip id="veh106" depart="325.07" departLane="best" from="5672948#0" to="496992363#0" type="veh_passenger"/>
    <trip id="veh107" depart="328.14" departLane="best" from="5672604#0" to="496992363#0" type="veh_passenger"/>
    <trip id="veh108" depart="331.21" departLane="best" from="-5671774#19" to="-561084838#9" type="veh_passenger"/>
    <trip id="veh109" depart="334.27" departLane="best" from="25162679#0" to="5671774#4" type="veh_passenger"/>
    <trip id="veh110" depart="337.34" departLane="best" from="5671774#0" to="5671774#4" type="veh_passenger"/>
    <trip id="veh111" depart="340.41" departLane="best" from="5672948#0" to="-630828594#1" type="veh_passenger"/>
    <trip id="veh112" depart="343.47" departLane="best" from="22902609" to="-561084838#5" type="veh_passenger"/>
    <trip id="veh113" depart="346.54" departLane="best" from="5671429#4" to="5671774#4" type="veh_passenger"/>
    <trip id="veh114" depart="349.61" departLane="best" from="420598238" to="561084838#6" type="veh_passenger"/>
    <trip id="veh115" depart="352.67" departLane="best" from="-5671774#19" to="5672604#4" type="veh_passenger"/>
    <trip id="veh116" depart="355.74" departLane="best" from="5672604#2" to="5672604#6" type="veh_passenger"/>
    <trip id="veh117" depart="358.81" departLane="best" from="5672604#0" to="5671774#4" type="veh_passenger"/>
    <trip id="veh118" depart="361.87" departLane="best" from="5671774#0" to="5671774#4" type="veh_passenger"/>
    <trip id="veh119" depart="364.94" departLane="best" from="5672604#0" to="118400726#5" type="veh_passenger"/>
    <trip id="veh120" depart="368.01" departLane="best" from="5672604#2" to="5671774#4" type="veh_passenger"/>
    <trip id="veh121" depart="371.07" departLane="best" from="22902609" to="5671429#6" type="veh_passenger"/>
    <trip id="veh122" depart="374.14" departLane="best" from="451808493#2" to="118400726#5" type="veh_passenger"/>
    <trip id="veh123" depart="377.21" departLane="best" from="-438388090#1" to="-630828594#1" type="veh_passenger"/>
    <trip id="veh124" depart="380.27" departLane="best" from="25162679#1" to="5671774#4" type="veh_passenger"/>
    <trip id="veh125" depart="383.34" departLane="best" from="630828594#0" to="118400726#5" type="veh_passenger"/>
    <trip id="veh126" depart="386.41" departLane="best" from="561084838#8" to="438388090#1" type="veh_passenger"/>
    <trip id="veh127" depart="389.47" departLane="best" from="630828594#0" to="496992363#0" type="veh_passenger"/>
    <trip id="veh128" depart="392.54" departLane="best" from="5672948#0" to="-561084838#7" type="veh_passenger"/>
    <trip id="veh129" depart="395.61" departLane="best" from="630828594#0" to="118400726#5" type="veh_passenger"/>
    <trip id="veh130" depart="398.68" departLane="best" from="-561084838#9" to="438388090#1" type="veh_passenger"/>
    <trip id="veh131" depart="401.74" departLane="best" from="5671429#0" to="118400726#5" type="veh_passenger"/>
    <trip id="veh133" depart="407.88" departLane="best" from="420598238" to="496992363#0" type="veh_passenger"/>
    <trip id="veh134" depart="410.94" departLane="best" from="22902609" to="5669962#9" type="veh_passenger"/>
    <trip id="veh135" depart="414.01" departLane="best" from="-438388090#1" to="5672604#4" type="veh_passenger"/>
    <trip id="veh136" depart="417.08" departLane="best" from="451808494#1" to="5669962#9" type="veh_passenger"/>
    <trip id="veh137" depart="420.14" departLane="best" from="5671429#0" to="5669962#9" type="veh_passenger"/>
    <trip id="veh138" depart="423.21" departLane="best" from="420598238" to="-561084838#3" type="veh_passenger"/>
    <trip id="veh140" depart="429.34" departLane="best" from="25162679#0" to="5671774#4" type="veh_passenger"/>
    <trip id="veh141" depart="432.41" departLane="best" from="5671429#0" to="118400726#5" type="veh_passenger"/>
    <trip id="veh142" depart="435.48" departLane="best" from="420598238" to="118400726#5" type="veh_passenger"/>
    <trip id="veh143" depart="438.54" departLane="best" from="-5671774#19" to="438388090#1" type="veh_passenger"/>
    <trip id="veh144" depart="441.61" departLane="best" from="5672948#0" to="5669962#9" type="veh_passenger"/>
    <trip id="veh145" depart="444.68" departLane="best" from="5672948#0" to="561084838#4" type="veh_passenger"/>
    <trip id="veh146" depart="447.74" departLane="best" from="25162679#0" to="496992363#0" type="veh_passenger"/>
    <trip id="veh147" depart="450.81" departLane="best" from="-438388090#1" to="118400726#5" type="veh_passenger"/>
    <trip id="veh148" depart="453.88" departLane="best" from="420598256" to="496992363#0" type="veh_passenger"/>
    <trip id="veh149" depart="456.94" departLane="best" from="5669962#0" to="438388090#1" type="veh_passenger"/>
    <trip id="veh150" depart="460.01" departLane="best" from="420598262" to="-630828594#1" type="veh_passenger"/>
    <trip id="veh151" depart="463.08" departLane="best" from="451808493#3" to="5671774#4" type="veh_passenger"/>
    <trip id="veh153" depart="469.21" departLane="best" from="5669962#0" to="118400726#0" type="veh_passenger"/>
    <trip id="veh154" depart="472.28" departLane="best" from="5672604#0" to="-561084838#3" type="veh_passenger"/>
    <trip id="veh155" depart="475.34" departLane="best" from="451808494#0" to="118400726#2" type="veh_passenger"/>
    <trip id="veh156" depart="478.41" departLane="best" from="5669962#0" to="-438389786#1" type="veh_passenger"/>
    <trip id="veh157" depart="481.48" departLane="best" from="5671429#0" to="5671429#6" type="veh_passenger"/>
    <trip id="veh158" depart="484.54" departLane="best" from="-561084838#9" to="438388090#1" type="veh_passenger"/>
    <trip id="veh159" depart="487.61" departLane="best" from="-5671774#3" to="5672604#6" type="veh_passenger"/>
    <trip id="veh160" depart="490.68" departLane="best" from="451808494#0" to="-561084838#3" type="veh_passenger"/>
    <trip id="veh161" depart="493.74" departLane="best" from="22902609" to="5671774#4" type="veh_passenger"/>
    <trip id="veh162" depart="496.81" departLane="best" from="451808493#2" to="5671429#6" type="veh_passenger"/>
    <trip id="veh163" depart="499.88" departLane="best" from="5669962#0" to="5672604#6" type="veh_passenger"/>
    <trip id="veh164" depart="502.94" departLane="best" from="5672948#0" to="561084838#4" type="veh_passenger"/>
    <trip id="veh166" depart="509.08" departLane="best" from="5672604#0" to="496992363#0" type="veh_passenger"/>
    <trip id="veh167" depart="512.14" departLane="best" from="5672948#0" to="5671429#5" type="veh_passenger"/>
    <trip id="veh168" depart="515.21" departLane="best" from="451808493#3" to="118400726#5" type="veh_passenger"/>
    <trip id="veh169" depart="518.28" departLane="best" from="561084838#6" to="118400726#5" type="veh_passenger"/>
    <trip id="veh170" depart="521.34" departLane="best" from="-496992369#2" to="118400726#5" type="veh_passenger"/>
    <trip id="veh171" depart="524.41" departLane="best" from="451808494#1" to="-5671774#3" type="veh_passenger"/>
    <trip id="veh172" depart="527.48" departLane="best" from="22902609" to="5669962#9" type="veh_passenger"/>
    <trip id="veh173" depart="530.54" departLane="best" from="420598238" to="496992363#0" type="veh_passenger"/>
    <trip id="veh174" depart="533.61" departLane="best" from="420598248" to="-630828594#1" type="veh_passenger"/>
    <trip id="veh175" depart="536.68" departLane="best" from="561084838#0" to="5669962#9" type="veh_passenger"/>
    <trip id="veh176" depart="539.74" departLane="best" from="5672604#0" to="5672604#6" type="veh_passenger"/>
    <trip id="veh177" depart="542.81" departLane="best" from="22902609" to="118400726#0" type="veh_passenger"/>
    <trip id="veh178" depart="545.88" departLane="best" from="420598262" to="-561084838#3" type="veh_passenger"/>
    <trip id="veh179" depart="548.94" departLane="best" from="25162679#2" to="5669962#9" type="veh_passenger"/>
    <trip id="veh180" depart="552.01" departLane="best" from="420598238" to="-630828594#1" type="veh_passenger"/>
    <trip id="veh181" depart="555.08" departLane="best" from="420598238" to="496992363#0" type="veh_passenger"/>
    <trip id="veh182" depart="558.15" departLane="best" from="-438388090#1" to="561084838#8" type="veh_passenger"/>
    <trip id="veh183" depart="561.21" departLane="best" from="-5671774#19" to="438388090#1" type="veh_passenger"/>
    <trip id="veh185" depart="567.35" departLane="best" from="5671429#0" to="5671774#0" type="veh_passenger"/>
    <trip id="veh186" depart="570.41" departLane="best" from="22902609" to="-561084838#3" type="veh_passenger"/>
    <trip id="veh187" depart="573.48" departLane="best" from="-438388090#1" to="496992363#0" type="veh_passenger"/>
    <trip id="veh188" depart="576.55" departLane="best" from="5669962#0" to="5671429#6" type="veh_passenger"/>
    <trip id="veh189" depart="579.61" departLane="best" from="5669962#0" to="5671429#6" type="veh_passenger"/>
    <trip id="veh190" depart="582.68" departLane="best" from="-438388090#1" to="-630828594#1" type="veh_passenger"/>
    <trip id="veh191" depart="585.75" departLane="best" from="-5671774#19" to="5669962#9" type="veh_passenger"/>
    <trip id="veh192" depart="588.81" departLane="best" from="561084838#0" to="-630828594#1" type="veh_passenger"/>
    <trip id="veh193" depart="591.88" departLane="best" from="5669962#0" to="5671429#6" type="veh_passenger"/>
    <trip id="veh194" depart="594.95" departLane="best" from="-5671774#19" to="561084838#4" type="veh_passenger"/>
    <trip id="veh195" depart="598.01" departLane="best" from="5671429#0" to="-561084838#7" type="veh_passenger"/>
    <trip id="veh196" depart="601.08" departLane="best" from="5672604#0" to="5672604#6" type="veh_passenger"/>
    <trip id="veh197" depart="604.15" departLane="best" from="630828594#0" to="420598262" type="veh_passenger"/>
    <trip id="veh198" depart="607.21" departLane="best" from="5669962#0" to="561084838#6" type="veh_passenger"/>
    <trip id="veh199" depart="610.28" departLane="best" from="-561084838#7" to="5671429#6" type="veh_passenger"/>
    <trip id="veh200" depart="613.35" departLane="best" from="5672604#0" to="496992369#0" type="veh_passenger"/>
    <trip id="veh201" depart="616.41" departLane="best" from="-5671774#19" to="5672604#6" type="veh_passenger"/>
    <trip id="veh202" depart="619.48" departLane="best" from="5672604#0" to="5671774#0" type="veh_passenger"/>
    <trip id="veh203" depart="622.55" departLane="best" from="561084838#6" to="5671774#0" type="veh_passenger"/>
    <trip id="veh205" depart="628.68" departLane="best" from="5671429#0" to="5672604#6" type="veh_passenger"/>
    <trip id="veh206" depart="631.75" departLane="best" from="25162679#0" to="5671774#4" type="veh_passenger"/>
    <trip id="veh207" depart="634.81" departLane="best" from="5672604#0" to="-561084838#3" type="veh_passenger"/>
    <trip id="veh208" depart="637.88" departLane="best" from="451808493#2" to="561084838#4" type="veh_passenger"/>
    <trip id="veh209" depart="640.95" departLane="best" from="420598238" to="-561084838#3" type="veh_passenger"/>
    <trip id="veh210" depart="644.01" departLane="best" from="5672604#0" to="-630828594#1" type="veh_passenger"/>
    <trip id="veh211" depart="647.08" departLane="best" from="22902609" to="5671429#6" type="veh_passenger"/>
    <trip id="veh212" depart="650.15" departLane="best" from="25162679#2" to="5671774#4" type="veh_passenger"/>
    <trip id="veh213" depart="653.21" departLane="best" from="5669962#0" to="118400726#5" type="veh_passenger"/>
    <trip id="veh214" depart="656.28" departLane="best" from="-438388090#1" to="5672604#6" type="veh_passenger"/>
    <trip id="veh215" depart="659.35" departLane="best" from="-561084838#5" to="5669962#9" type="veh_passenger"/>
    <trip id="veh216" depart="662.41" departLane="best" from="5669962#0" to="5669962#6" type="veh_passenger"/>
    <trip id="veh217" depart="665.48" departLane="best" from="5669962#0" to="118400726#5" type="veh_passenger"/>
    <trip id="veh218" depart="668.55" departLane="best" from="561084838#0" to="438389786#0" type="veh_passenger"/>
    <trip id="veh220" depart="674.68" departLane="best" from="5669962#0" to="118400726#5" type="veh_passenger"/>
    <trip id="veh221" depart="677.75" departLane="best" from="22902609" to="-561084838#7" type="veh_passenger"/>
    <trip id="veh222" depart="680.81" departLane="best" from="451808494#1" to="5671429#6" type="veh_passenger"/>
    <trip id="veh223" depart="683.88" departLane="best" from="118400726#0" to="-630828594#1" type="veh_passenger"/>
    <trip id="veh224" depart="686.95" departLane="best" from="451808494#0" to="5669962#9" type="veh_passenger"/>
    <trip id="veh225" depart="690.01" departLane="best" from="630828594#0" to="496992363#0" type="veh_passenger"/>
    <trip id="veh226" depart="693.08" departLane="best" from="25162679#0" to="-561084838#5" type="veh_passenger"/>
    <trip id="veh227" depart="696.15" departLane="best" from="451808494#1" to="118400726#5" type="veh_passenger"/>
    <trip id="veh228" depart="699.21" departLane="best" from="630828594#0" to="496992363#0" type="veh_passenger"/>
    <trip id="veh229" depart="702.28" departLane="best" from="5669962#0" to="-561084838#9" type="veh_passenger"/>
    <trip id="veh231" depart="708.41" departLane="best" from="5672604#2" to="496992363#0" type="veh_passenger"/>
    <trip id="veh232" depart="711.48" departLane="best" from="451808493#3" to="438388090#1" type="veh_passenger"/>
    <trip id="veh233" depart="714.55" departLane="best" from="118400726#0" to="-561084838#3" type="veh_passenger"/>
    <trip id="veh234" depart="717.62" departLane="best" from="-438388090#1" to="-5671774#3" type="veh_passenger"/>
    <trip id="veh235" depart="720.68" departLane="best" from="561084838#0" to="118400726#5" type="veh_passenger"/>
    <trip id="veh236" depart="723.75" departLane="best" from="5671429#0" to="561084838#4" type="veh_passenger"/>
    <trip id="veh237" depart="726.82" departLane="best" from="420598262" to="5671774#4" type="veh_passenger"/>
    <trip id="veh238" depart="729.88" departLane="best" from="630828594#0" to="118400726#5" type="veh_passenger"/>
    <trip id="veh239" depart="732.95" departLane="best" from="5671429#0" to="5672604#6" type="veh_passenger"/>
    <trip id="veh240" depart="736.02" departLane="best" from="22902609" to="-630828594#1" type="veh_passenger"/>
    <trip id="veh241" depart="739.08" departLane="best" from="5669962#0" to="-630828594#1" type="veh_passenger"/>
    <trip id="veh242" depart="742.15" departLane="best" from="-5671774#3" to="-561084838#3" type="veh_passenger"/>
    <trip id="veh243" depart="745.22" departLane="best" from="561084838#0" to="118400726#5" type="veh_passenger"/>
    <trip id="veh244" depart="748.28" departLane="best" from="22902609" to="5669962#9" type="veh_passenger"/>
    <trip id="veh245" depart="751.35" departLane="best" from="5669962#0" to="438388090#1" type="veh_passenger"/>
    <trip id="veh246" depart="754.42" departLane="best" from="5669962#0" to="5672604#4" type="veh_passenger"/>
    <trip id="veh247" depart="757.48" departLane="best" from="5669962#0" to="5672604#6" type="veh_passenger"/>
    <trip id="veh248" depart="760.55" departLane="best" from="420598256" to="496992363#0" type="veh_passenger"/>
    <trip id="veh249" depart="763.62" departLane="best" from="5672604#0" to="-561084838#3" type="veh_passenger"/>
    <trip id="veh250" depart="766.68" departLane="best" from="-5671774#19" to="118400726#5" type="veh_passenger"/>
    <trip id="veh251" depart="769.75" departLane="best" from="25162679#0" to="-561084838#9" type="veh_passenger"/>
    <trip id="veh252" depart="772.82" departLane="best" from="5669962#0" to="5669962#9" type="veh_passenger"/>
    <trip id="veh253" depart="775.88" departLane="best" from="5672948#0" to="451808493#3" type="veh_passenger"/>
    <trip id="veh254" depart="778.95" departLane="best" from="451808494#0" to="-561084838#3" type="veh_passenger"/>
    <trip id="veh255" depart="782.02" departLane="best" from="25162679#1" to="118400726#5" type="veh_passenger"/>
    <trip id="veh256" depart="785.08" departLane="best" from="5672604#0" to="496992363#0" type="veh_passenger"/>
    <trip id="veh257" depart="788.15" departLane="best" from="5669962#0" to="118400726#5" type="veh_passenger"/>
    <trip id="veh258" depart="791.22" departLane="best" from="451808493#3" to="5669962#6" type="veh_passenger"/>
    <trip id="veh259" depart="794.28" departLane="best" from="5672948#0" to="-630828594#1" type="veh_passenger"/>
    <trip id="veh260" depart="797.35" departLane="best" from="561084838#0" to="561084838#8" type="veh_passenger"/>
    <trip id="veh261" depart="800.42" departLane="best" from="451808494#0" to="-561084838#3" type="veh_passenger"/>
    <trip id="veh262" depart="803.48" departLane="best" from="5669962#0" to="5671774#4" type="veh_passenger"/>
    <trip id="veh263" depart="806.55" departLane="best" from="25162679#2" to="5669962#9" type="veh_passenger"/>
    <trip id="veh264" depart="809.62" departLane="best" from="25162679#0" to="5672604#6" type="veh_passenger"/>
    <trip id="veh265" depart="812.68" departLane="best" from="5672604#0" to="496992363#0" type="veh_passenger"/>
    <trip id="veh266" depart="815.75" departLane="best" from="451808493#2" to="118400726#5" type="veh_passenger"/>
    <trip id="veh267" depart="818.82" departLane="best" from="25162679#1" to="5672604#6" type="veh_passenger"/>
    <trip id="veh268" depart="821.88" departLane="best" from="630828594#0" to="5669962#9" type="veh_passenger"/>
    <trip id="veh269" depart="824.95" departLane="best" from="5671429#0" to="561084838#6" type="veh_passenger"/>
    <trip id="veh270" depart="828.02" departLane="best" from="5671429#0" to="-630828594#1" type="veh_passenger"/>
    <trip id="veh271" depart="831.08" departLane="best" from="420598262" to="5669962#9" type="veh_passenger"/>
    <trip id="veh272" depart="834.15" departLane="best" from="-5671774#19" to="5672604#6" type="veh_passenger"/>
    <trip id="veh273" depart="837.22" departLane="best" from="-5671774#19" to="496992363#0" type="veh_passenger"/>
    <trip id="veh274" depart="840.28" departLane="best" from="496992369#0" to="-561084838#3" type="veh_passenger"/>
    <trip id="veh276" depart="846.42" departLane="best" from="451808493#2" to="-561084838#7" type="veh_passenger"/>