<?xml version="1.0" encoding="UTF-8"?>
<!-- generated on 2018-10-28 14:40:25.974460 by $Id$ via randomTrips.py
  options: 
-->
<routes xmlns:xsi="http://www.w3.org/2001/XMLSchema-instance" xsi:noNamespaceSchemaLocation="http://sumo.dlr.de/xsd/routes_file.xsd">
    <vType id="veh_passenger" vClass="passenger">
    </vType>
    <trip id="veh0" depart="0.00" departLane="best" from="46609036#1" to="-384826723#6" type="veh_passenger"/>
    <trip id="veh1" depart="0.51" departLane="best" from="22914179#2" to="222299248#0" type="veh_passenger"/>
    <trip id="veh2" depart="1.02" departLane="best" from="542257009#5" to="483236728#5" type="veh_passenger"/>
    <trip id="veh3" depart="1.52" departLane="best" from="5672535#1" to="-5673179#2" type="veh_passenger"/>
    <trip id="veh4" depart="2.03" departLane="best" from="420522049#7" to="-420519634#1" type="veh_passenger"/>
    <trip id="veh5" depart="2.54" departLane="best" from="196117091#1" to="451808492#3" type="veh_passenger"/>
    <trip id="veh6" depart="3.05" departLane="best" from="-420356170#0" to="195743556#2" type="veh_passenger"/>
    <trip id="veh7" depart="3.55" departLane="best" from="474635905#3" to="458177128#0" type="veh_passenger"/>
    <trip id="veh8" depart="4.06" departLane="best" from="216959250#1" to="464543615#1" type="veh_passenger"/>
    <trip id="veh9" depart="4.57" departLane="best" from="5670771#0" to="-195743208#1" type="veh_passenger"/>
    <trip id="veh10" depart="5.08" departLane="best" from="5670731#3" to="492489893" type="veh_passenger"/>
    <trip id="veh11" depart="5.58" departLane="best" from="359180982" to="194923795#5" type="veh_passenger"/>
    <trip id="veh12" depart="6.09" departLane="best" from="619277989#0" to="350726028#5" type="veh_passenger"/>
    <trip id="veh13" depart="6.60" departLane="best" from="-68668521#0" to="-616745173" type="veh_passenger"/>
    <trip id="veh14" depart="7.11" departLane="best" from="5671429#2" to="464683344" type="veh_passenger"/>
    <trip id="veh15" depart="7.61" departLane="best" from="5670731#5" to="528755493#1" type="veh_passenger"/>
    <trip id="veh16" depart="8.12" departLane="best" from="458177133#2" to="630828586#2" type="veh_passenger"/>
    <trip id="veh17" depart="8.63" departLane="best" from="385668565#5" to="46139021" type="veh_passenger"/>
    <trip id="veh18" depart="9.14" departLane="best" from="5671192#4" to="46469739" type="veh_passenger"/>
    <trip id="veh19" depart="9.64" departLane="best" from="5671774#0" to="46334603#0" type="veh_passenger"/>
    <trip id="veh20" depart="10.15" departLane="best" from="496993763" to="-489019754#1" type="veh_passenger"/>
    <trip id="veh21" depart="10.66" departLane="best" from="226040993#2" to="32938060" type="veh_passenger"/>
    <trip id="veh22" depart="11.17" departLane="best" from="-5672434#1" to="226040995#0" type="veh_passenger"/>
    <trip id="veh23" depart="11.68" departLane="best" from="118400729#8" to="22914179#5" type="veh_passenger"/>
    <trip id="veh24" depart="12.18" departLane="best" from="46608946#3" to="381472452#0" type="veh_passenger"/>
    <trip id="veh25" depart="12.69" departLane="best" from="384178813#0" to="196117042#4" type="veh_passenger"/>
    <trip id="veh26" depart="13.20" departLane="best" from="22903913#1" to="587038101" type="veh_passenger"/>
    <trip id="veh27" depart="13.71" departLane="best" from="474635905#0" to="46469725" type="veh_passenger"/>
    <trip id="veh28" depart="14.21" departLane="best" from="194923808#1" to="528755493#0" type="veh_passenger"/>
    <trip id="veh29" depart="14.72" departLane="best" from="194923802#5" to="384826723#4" type="veh_passenger"/>
    <trip id="veh30" depart="15.23" departLane="best" from="68674961#0" to="46522001#4" type="veh_passenger"/>
    <trip id="veh31" depart="15.74" departLane="best" from="46334595#0" to="483704512#8" type="veh_passenger"/>
    <trip id="veh32" depart="16.24" departLane="best" from="5671401#3" to="5670044#1" type="veh_passenger"/>
    <trip id="veh33" depart="16.75" departLane="best" from="226040993#5" to="-420522695#1" type="veh_passenger"/>
    <trip id="veh34" depart="17.26" departLane="best" from="196117075#0" to="597821266#3" type="veh_passenger"/>
    <trip id="veh35" depart="17.77" departLane="best" from="5672211#3" to="33804436#7" type="veh_passenger"/>
    <trip id="veh36" depart="18.27" departLane="best" from="480112478#2" to="388240124#6" type="veh_passenger"/>
    <trip id="veh37" depart="18.78" departLane="best" from="5673179#2" to="420872212" type="veh_passenger"/>
    <trip id="veh38" depart="19.29" departLane="best" from="22897633#7" to="226041003#2" type="veh_passenger"/>
    <trip id="veh39" depart="19.80" departLane="best" from="46334598#3" to="226193933#8" type="veh_passenger"/>
    <trip id="veh40" depart="20.30" departLane="best" from="464683326#0" to="5672681#4" type="veh_passenger"/>
    <trip id="veh42" depart="21.32" departLane="best" from="95181768#0" to="453367786#1" type="veh_passenger"/>
    <trip id="veh43" depart="21.83" departLane="best" from="-628093103#1" to="-489375011#1" type="veh_passenger"/>
    <trip id="veh44" depart="22.33" departLane="best" from="125479715#0" to="46490537#2" type="veh_passenger"/>
    <trip id="veh45" depart="22.84" departLane="best" from="5670454" to="420514149#1" type="veh_passenger"/>
    <trip id="veh46" depart="23.35" departLane="best" from="-5670254#1" to="384826723#6" type="veh_passenger"/>
    <trip id="veh47" depart="23.86" departLane="best" from="630828585#2" to="5671699#1" type="veh_passenger"/>
    <trip id="veh48" depart="24.37" departLane="best" from="-335935797#1" to="511699182" type="veh_passenger"/>
    <trip id="veh49" depart="24.87" departLane="best" from="492148706#1" to="458166897#11" type="veh_passenger"/>
    <trip id="veh50" depart="25.38" departLane="best" from="22903913#1" to="46522001#4" type="veh_passenger"/>
    <trip id="veh51" depart="25.89" departLane="best" from="127693199#1" to="420598241" type="veh_passenger"/>
    <trip id="veh52" depart="26.40" departLane="best" from="420895276" to="616745175#2" type="veh_passenger"/>
    <trip id="veh53" depart="26.90" departLane="best" from="5672211#2" to="226193933#8" type="veh_passenger"/>
    <trip id="veh54" depart="27.41" departLane="best" from="453367786#0" to="194926842#0" type="veh_passenger"/>
    <trip id="veh55" depart="27.92" departLane="best" from="5673052#1" to="5672151#0" type="veh_passenger"/>
    <trip id="veh57" depart="28.93" departLane="best" from="46481095#0" to="194923795#0" type="veh_passenger"/>
    <trip id="veh58" depart="29.44" departLane="best" from="5669875#2" to="458166897#11" type="veh_passenger"/>
    <trip id="veh59" depart="29.95" departLane="best" from="5670106#2" to="458166896#12" type="veh_passenger"/>
    <trip id="veh60" depart="30.46" departLane="best" from="5672415#0" to="5671160#1" type="veh_passenger"/>
    <trip id="veh61" depart="30.96" departLane="best" from="5672273#1" to="597821267#2" type="veh_passenger"/>
    <trip id="veh62" depart="31.47" departLane="best" from="-5673605#1" to="428569470#4" type="veh_passenger"/>
    <trip id="veh63" depart="31.98" departLane="best" from="-5671701" to="5669806#0" type="veh_passenger"/>
    <trip id="veh64" depart="32.49" departLane="best" from="5669953#5" to="144001606#1" type="veh_passenger"/>
    <trip id="veh65" depart="32.99" departLane="best" from="428569356" to="460606348#0" type="veh_passenger"/>
    <trip id="veh66" depart="33.50" departLane="best" from="22897633#7" to="5672151#3" type="veh_passenger"/>
    <trip id="veh67" depart="34.01" departLane="best" from="420522443#1" to="196117073" type="veh_passenger"/>
    <trip id="veh68" depart="34.52" departLane="best" from="460606348#1" to="528755493#2" type="veh_passenger"/>
    <trip id="veh69" depart="35.03" departLane="best" from="195834894#0" to="33804436#2" type="veh_passenger"/>
    <trip id="veh70" depart="35.53" departLane="best" from="68674968#1" to="46608946#3" type="veh_passenger"/>
    <trip id="veh71" depart="36.04" departLane="best" from="420598339" to="458106345#4" type="veh_passenger"/>
    <trip id="veh72" depart="36.55" departLane="best" from="359180982" to="464543615#0" type="veh_passenger"/>
    <trip id="veh73" depart="37.06" departLane="best" from="226040994#1" to="196117091#1" type="veh_passenger"/>
    <trip id="veh74" depart="37.56" departLane="best" from="-5671774#10" to="46490540#1" type="veh_passenger"/>
    <trip id="veh75" depart="38.07" departLane="best" from="226040993#5" to="5672730" type="veh_passenger"/>
    <trip id="veh76" depart="38.58" departLane="best" from="5671719#3" to="-5671774#10" type="veh_passenger"/>
    <trip id="veh77" depart="39.09" departLane="best" from="226041000#2" to="480112478#2" type="veh_passenger"/>
    <trip id="veh78" depart="39.59" departLane="best" from="196117090#2" to="156994977#2" type="veh_passenger"/>
    <trip id="veh79" depart="40.10" departLane="best" from="587038081#0" to="46334597" type="veh_passenger"/>
    <trip id="veh80" depart="40.61" departLane="best" from="421825692#3" to="5670106#5" type="veh_passenger"/>
    <trip id="veh81" depart="41.12" departLane="best" from="5670731#5" to="195743341#2" type="veh_passenger"/>
    <trip id="veh82" depart="41.62" departLane="best" from="110489638#1" to="420522695#0" type="veh_passenger"/>
    <trip id="veh83" depart="42.13" departLane="best" from="420522443#1" to="420901672" type="veh_passenger"/>
    <trip id="veh84" depart="42.64" departLane="best" from="540356239#6" to="481403099#1" type="veh_passenger"/>
    <trip id="veh85" depart="43.15" departLane="best" from="68668541#3" to="-619277987#2" type="veh_passenger"/>
    <trip id="veh86" depart="43.65" departLane="best" from="420356169#0" to="350726028#9" type="veh_passenger"/>
    <trip id="veh87" depart="44.16" departLane="best" from="5671774#0" to="226041004#2" type="veh_passenger"/>
    <trip id="veh88" depart="44.67" departLane="best" from="195743341#5" to="420598402#1" type="veh_passenger"/>
    <trip id="veh89" depart="45.18" departLane="best" from="420522049#7" to="22914180#1" type="veh_passenger"/>
    <trip id="veh90" depart="45.69" departLane="best" from="226041005#4" to="5673452" type="veh_passenger"/>
    <trip id="veh91" depart="46.19" departLane="best" from="420598407" to="5671701" type="veh_passenger"/>
    <trip id="veh92" depart="46.70" departLane="best" from="46201647#0" to="-525033953" type="veh_passenger"/>
    <trip id="veh94" depart="47.72" departLane="best" from="630828584#0" to="5673605#0" type="veh_passenger"/>
    <trip id="veh96" depart="48.73" departLane="best" from="439933934" to="196117075#1" type="veh_passenger"/>
    <trip id="veh97" depart="49.24" departLane="best" from="415849235#0" to="-551074012#0" type="veh_passenger"/>
    <trip id="veh98" depart="49.75" departLane="best" from="385668565#5" to="68668556" type="veh_passenger"/>
    <trip id="veh99" depart="50.25" departLane="best" from="22897720#1" to="5670106#4" type="veh_passenger"/>
    <trip id="veh100" depart="50.76" departLane="best" from="420895277#1" to="420519635#0" type="veh_passenger"/>
    <trip id="veh101" depart="51.27" departLane="best" from="619277989#0" to="95181768#2" type="veh_passenger"/>
    <trip id="veh102" depart="51.78" departLane="best" from="46226332#1" to="505766273" type="veh_passenger"/>
    <trip id="veh103" depart="52.28" departLane="best" from="194923795#2" to="32939512#1" type="veh_passenger"/>
    <trip id="veh104" depart="52.79" departLane="best" from="630828584#0" to="46431822#1" type="veh_passenger"/>
    <trip id="veh105" depart="53.30" departLane="best" from="46171876#0" to="554083353#2" type="veh_passenger"/>
    <trip id="veh106" depart="53.81" departLane="best" from="-542096278#2" to="464515259#4" type="veh_passenger"/>
    <trip id="veh107" depart="54.31" departLane="best" from="453367786#4" to="5671429#7" type="veh_passenger"/>
    <trip id="veh108" depart="54.82" departLane="best" from="194923800#1" to="620680161#1" type="veh_passenger"/>
    <trip id="veh109" depart="55.33" departLane="best" from="-5672991" to="195743182#0" type="veh_passenger"/>
    <trip id="veh110" depart="55.84" departLane="best" from="226040998#0" to="127693200#1" type="veh_passenger"/>
    <trip id="veh111" depart="56.34" departLane="best" from="5672487#3" to="226041003#1" type="veh_passenger"/>
    <trip id="veh112" depart="56.85" departLane="best" from="46469721" to="46469739" type="veh_passenger"/>
    <trip id="veh113" depart="57.36" departLane="best" from="420522049#1" to="464515259#3" type="veh_passenger"/>
    <trip id="veh114" depart="57.87" departLane="best" from="458166896#17" to="587038047-AddedOnRampEdge" type="veh_passenger"/>
    <trip id="veh115" depart="58.38" departLane="best" from="196117028#2" to="500717404#0" type="veh_passenger"/>
    <trip id="veh116" depart="58.88" departLane="best" from="226041000#3" to="388240124#9" type="veh_passenger"/>
    <trip id="veh117" depart="59.39" departLane="best" from="485556247#0" to="33117932#1-AddedOnRampEdge" type="veh_passenger"/>
    <trip id="veh119" depart="60.41" departLane="best" from="-5671774#16" to="420872205#1" type="veh_passenger"/>
    <trip id="veh120" depart="60.91" departLane="best" from="-5671774#19" to="196117075#0" type="veh_passenger"/>
    <trip id="veh121" depart="61.42" departLane="best" from="22897720#1" to="584971399" type="veh_passenger"/>
    <trip id="veh122" depart="61.93" departLane="best" from="5672415#0" to="5672211#2" type="veh_passenger"/>
    <trip id="veh123" depart="62.44" departLane="best" from="384178812#2" to="194923801#0" type="veh_passenger"/>
    <trip id="veh124" depart="62.94" departLane="best" from="5671349#3" to="496985714#0" type="veh_passenger"/>
    <trip id="veh125" depart="63.45" departLane="best" from="46481095#2" to="68674961#1" type="veh_passenger"/>
    <trip id="veh126" depart="63.96" departLane="best" from="480112478#0" to="-196117073" type="veh_passenger"/>
    <trip id="veh127" depart="64.47" departLane="best" from="5670836#5" to="33117932#1-AddedOffRampEdge" type="veh_passenger"/>
    <trip id="veh128" depart="64.97" departLane="best" from="483236728#6" to="587061869#0" type="veh_passenger"/>
    <trip id="veh129" depart="65.48" departLane="best" from="162041587#2" to="11878022#1" type="veh_passenger"/>
    <trip id="veh130" depart="65.99" departLane="best" from="11878036" to="46139023#4" type="veh_passenger"/>
    <trip id="veh131" depart="66.50" departLane="best" from="22909247" to="46469720#0" type="veh_passenger"/>
    <trip id="veh132" depart="67.00" departLane="best" from="518451327#0" to="195834894#1" type="veh_passenger"/>
    <trip id="veh133" depart="67.51" departLane="best" from="46608946#1" to="226193933#8" type="veh_passenger"/>
    <trip id="veh134" depart="68.02" departLane="best" from="44165026" to="5672730" type="veh_passenger"/>
    <trip id="veh135" depart="68.53" departLane="best" from="5671402#1" to="-5673511" type="veh_passenger"/>
    <trip id="veh136" depart="69.04" departLane="best" from="420522443#1" to="22914179#3" type="veh_passenger"/>
    <trip id="veh137" depart="69.54" departLane="best" from="-194926839#1" to="5669976#0" type="veh_passenger"/>
    <trip id="veh138" depart="70.05" departLane="best" from="46608946#6" to="226193933#8" type="veh_passenger"/>
    <trip id="veh139" depart="70.56" departLane="best" from="547089938#0" to="46139021" type="veh_passenger"/>
    <trip id="veh140" depart="71.07" departLane="best" from="420598230#0" to="-196117075#1" type="veh_passenger"/>
    <trip id="veh141" depart="71.57" departLane="best" from="-5671774#8" to="5672415#2" type="veh_passenger"/>
    <trip id="veh142" depart="72.08" departLane="best" from="5672896#0" to="458177128#2" type="veh_passenger"/>
    <trip id="veh143" depart="72.59" departLane="best" from="5671359#0" to="464515259#1" type="veh_passenger"/>
    <trip id="veh144" depart="73.10" departLane="best" from="33804436#3" to="5672681#6" type="veh_passenger"/>
    <trip id="veh145" depart="73.60" departLane="best" from="5670600" to="5671699#1" type="veh_passenger"/>
    <trip id="veh146" depart="74.11" departLane="best" from="5672681#7" to="196117051#0" type="veh_passenger"/>
    <trip id="veh147" depart="74.62" departLane="best" from="226041005#3" to="-68668521#3" type="veh_passenger"/>
    <trip id="veh148" depart="75.13" departLane="best" from="5670106#5" to="5672434#1" type="veh_passenger"/>
    <trip id="veh149" depart="75.63" departLane="best" from="420356171#2" to="46469739" type="veh_passenger"/>
    <trip id="veh150" depart="76.14" departLane="best" from="194923795#2" to="5673626#1" type="veh_passenger"/>
    <trip id="veh151" depart="76.65" departLane="best" from="5671774#17" to="68668521#3" type="veh_passenger"/>
    <trip id="veh152" depart="77.16" departLane="best" from="5670771#3" to="5672273#0" type="veh_passenger"/>
    <trip id="veh153" depart="77.66" departLane="best" from="-384826723#4" to="542096278#2" type="veh_passenger"/>
    <trip id="veh154" depart="78.17" departLane="best" from="350726028#3" to="5673626#3" type="veh_passenger"/>
    <trip id="veh155" depart="78.68" departLane="best" from="5670719#5" to="5671774#11" type="veh_passenger"/>
    <trip id="veh156" depart="79.19" departLane="best" from="5670771#3" to="22897720#1" type="veh_passenger"/>
    <trip id="veh157" depart="79.70" departLane="best" from="5670297#1" to="118400729#11" type="veh_passenger"/>
    <trip id="veh158" depart="80.20" departLane="best" from="5672176#0" to="5671668#3" type="veh_passenger"/>
    <trip id="veh159" depart="80.71" departLane="best" from="222299258#0" to="5670785#0" type="veh_passenger"/>
    <trip id="veh160" depart="81.22" departLane="best" from="420901669" to="335935798#1" type="veh_passenger"/>
    <trip id="veh161" depart="81.73" departLane="best" from="-384826723#0" to="195743341#6" type="veh_passenger"/>
    <trip id="veh162" depart="82.23" departLane="best" from="348477349" to="5671774#14" type="veh_passenger"/>
    <trip id="veh163" depart="82.74" departLane="best" from="630828556#1" to="22914181#0" type="veh_passenger"/>
    <trip id="veh164" depart="83.25" departLane="best" from="46610721#0" to="396444294#10" type="veh_passenger"/>
    <trip id="veh165" depart="83.76" departLane="best" from="68668540#0" to="458166897#10" type="veh_passenger"/>
    <trip id="veh166" depart="84.26" departLane="best" from="588168464" to="11878022#1" type="veh_passenger"/>
    <trip id="veh167" depart="84.77" departLane="best" from="630828585#1" to="194926842#0" type="veh_passenger"/>
    <trip id="veh168" depart="85.28" departLane="best" from="626226775#3" to="22897633#6" type="veh_passenger"/>
    <trip id="veh169" depart="85.79" departLane="best" from="125479715#0" to="420598241" type="veh_passenger"/>
    <trip id="veh170" depart="86.29" departLane="best" from="540356239#5" to="33804436#5" type="veh_passenger"/>
    <trip id="veh171" depart="86.80" departLane="best" from="388240124#0" to="46334602#1" type="veh_passenger"/>
    <trip id="veh172" depart="87.31" departLane="best" from="226041042" to="496992363#4" type="veh_passenger"/>
    <trip id="veh173" depart="87.82" departLane="best" from="-116672333#3" to="5673561#4" type="veh_passenger"/>
    <trip id="veh174" depart="88.32" departLane="best" from="460606348#0" to="506680905" type="veh_passenger"/>
    <trip id="veh175" depart="88.83" departLane="best" from="551074012#0" to="480112480#1" type="veh_passenger"/>
    <trip id="veh176" depart="89.34" departLane="best" from="381480256#1" to="-5671620#1" type="veh_passenger"/>
    <trip id="veh177" depart="89.85" departLane="best" from="483236728#7" to="348477348#3" type="veh_passenger"/>
    <trip id="veh178" depart="90.36" departLane="best" from="34080062#0" to="5671429#1" type="veh_passenger"/>
    <trip id="veh179" depart="90.86" departLane="best" from="525033953" to="33117932#1-AddedOnRampEdge" type="veh_passenger"/>
    <trip id="veh180" depart="91.37" departLane="best" from="33804436#4" to="396444295#4" type="veh_passenger"/>
    <trip id="veh181" depart="91.88" departLane="best" from="420356169#0" to="32939512#1" type="veh_passenger"/>
    <trip id="veh182" depart="92.39" departLane="best" from="156994977#2" to="420512232" type="veh_passenger"/>
    <trip id="veh183" depart="92.89" departLane="best" from="589494594" to="483236728#6" type="veh_passenger"/>
    <trip id="veh184" depart="93.40" departLane="best" from="5672713#0" to="46469731#2" type="veh_passenger"/>
    <trip id="veh185" depart="93.91" departLane="best" from="335935797#0" to="458177133#2" type="veh_passenger"/>
    <trip id="veh186" depart="94.42" departLane="best" from="-116672333#1" to="308322431#2" type="veh_passenger"/>
    <trip id="veh187" depart="94.92" departLane="best" from="420598230#4" to="46431823#1" type="veh_passenger"/>
    <trip id="veh188" depart="95.43" departLane="best" from="420598373" to="196117075#1" type="veh_passenger"/>
    <trip id="veh189" depart="95.94" departLane="best" from="421852618#0" to="5672710#3" type="veh_passenger"/>
    <trip id="veh190" depart="96.45" departLane="best" from="5670600" to="194923807#9" type="veh_passenger"/>
    <trip id="veh191" depart="96.95" departLane="best" from="-5673605#0" to="458106345#1" type="veh_passenger"/>
    <trip id="veh192" depart="97.46" departLane="best" from="46581216#5" to="350726028#10" type="veh_passenger"/>
    <trip id="veh193" depart="97.97" departLane="best" from="5670876#0" to="5669154" type="veh_passenger"/>
    <trip id="veh194" depart="98.48" departLane="best" from="485556247#1" to="222299276#0" type="veh_passenger"/>
    <trip id="veh195" depart="98.98" departLane="best" from="195743558#5" to="-384826723#4" type="veh_passenger"/>
    <trip id="veh196" depart="99.49" departLane="best" from="226041003#1" to="420908128#1" type="veh_passenger"/>
    <trip id="veh197" depart="100.00" departLane="best" from="5671440#0" to="-5671774#19" type="veh_passenger"/>
    <trip id="veh198" depart="100.51" departLane="best" from="420514148#1" to="46490538#3" type="veh_passenger"/>
    <trip id="veh199" depart="101.01" departLane="best" from="447001272#1" to="226041001#5" type="veh_passenger"/>
    <trip id="veh200" depart="101.52" departLane="best" from="480112479" to="-195743208#0" type="veh_passenger"/>
    <trip id="veh201" depart="102.03" departLane="best" from="5669580" to="5669953#6" type="veh_passenger"/>
    <trip id="veh202" depart="102.54" departLane="best" from="11878036" to="420520113#1" type="veh_passenger"/>
    <trip id="veh203" depart="103.05" departLane="best" from="194923812#2" to="619277989#1" type="veh_passenger"/>
    <trip id="veh204" depart="103.55" departLane="best" from="458166893#2" to="-496995905" type="veh_passenger"/>
    <trip id="veh205" depart="104.06" departLane="best" from="226041005#3" to="5671429#1" type="veh_passenger"/>
    <trip id="veh206" depart="104.57" departLane="best" from="420895277#3" to="5670673#1" type="veh_passenger"/>
    <trip id="veh207" depart="105.08" departLane="best" from="483704512#3" to="68674961#2" type="veh_passenger"/>
    <trip id="veh208" depart="105.58" departLane="best" from="46469723" to="611258687#0" type="veh_passenger"/>
    <trip id="veh209" depart="106.09" departLane="best" from="5672487#7" to="46469729#1" type="veh_passenger"/>
    <trip id="veh210" depart="106.60" departLane="best" from="524546351" to="451808492#2" type="veh_passenger"/>
    <trip id="veh211" depart="107.11" departLane="best" from="5671261#1" to="458177133#2" type="veh_passenger"/>
    <trip id="veh212" depart="107.61" departLane="best" from="5672681#4" to="543902513#0" type="veh_passenger"/>
    <trip id="veh213" depart="108.12" departLane="best" from="421852619#1" to="226193933#4" type="veh_passenger"/>
    <trip id="veh214" depart="108.63" departLane="best" from="226041004#2" to="46520833#3" type="veh_passenger"/>
    <trip id="veh215" depart="109.14" departLane="best" from="5669953#5" to="458106346#3" type="veh_passenger"/>
    <trip id="veh216" depart="109.64" departLane="best" from="46520833#3" to="22909249" type="veh_passenger"/>
    <trip id="veh217" depart="110.15" departLane="best" from="-5672415#1" to="23048468#1" type="veh_passenger"/>
    <trip id="veh218" depart="110.66" departLane="best" from="22909152#0" to="34080174#4" type="veh_passenger"/>
    <trip id="veh219" depart="111.17" departLane="best" from="46139021" to="162041587#0" type="veh_passenger"/>
    <trip id="veh220" depart="111.67" departLane="best" from="226040996#0" to="491162341#2" type="veh_passenger"/>
    <trip id="veh221" depart="112.18" departLane="best" from="496993920" to="-5670924#0" type="veh_passenger"/>
    <trip id="veh222" depart="112.69" departLane="best" from="420499931#0" to="458166897#6" type="veh_passenger"/>
    <trip id="veh223" depart="113.20" departLane="best" from="420514149#1" to="196117032" type="veh_passenger"/>
    <trip id="veh224" depart="113.71" departLane="best" from="420522049#3" to="5672730" type="veh_passenger"/>
    <trip id="veh225" depart="114.21" departLane="best" from="464683326#0" to="492148706#2" type="veh_passenger"/>
    <trip id="veh226" depart="114.72" departLane="best" from="5671699#1" to="5669953#2" type="veh_passenger"/>
    <trip id="veh228" depart="115.74" departLane="best" from="368938762#0" to="5669581" type="veh_passenger"/>
    <trip id="veh229" depart="116.24" departLane="best" from="5671668#1" to="616745175#1" type="veh_passenger"/>
    <trip id="veh230" depart="116.75" departLane="best" from="420522049#1" to="554083353#0" type="veh_passenger"/>
    <trip id="veh231" depart="117.26" departLane="best" from="46171876#8" to="464683341#1" type="veh_passenger"/>
    <trip id="veh232" depart="117.77" departLane="best" from="221157083#0" to="196117091#0" type="veh_passenger"/>
    <trip id="veh233" depart="118.27" departLane="best" from="420598330#2" to="-420509471#1" type="veh_passenger"/>
    <trip id="veh234" depart="118.78" departLane="best" from="350726030#1" to="483236728#9" type="veh_passenger"/>
    <trip id="veh235" depart="119.29" departLane="best" from="420356170#1" to="194923805#0" type="veh_passenger"/>
    <trip id="veh236" depart="119.80" departLane="best" from="420904660#0" to="144001605#3" type="veh_passenger"/>
    <trip id="veh237" depart="120.30" departLane="best" from="465098290" to="-420509471#1" type="veh_passenger"/>
    <trip id="veh238" depart="120.81" departLane="best" from="396444294#3" to="46201650#1" type="veh_passenger"/>
    <trip id="veh239" depart="121.32" departLane="best" from="-420519634#1" to="46522001#4" type="veh_passenger"/>
    <trip id="veh240" depart="121.83" departLane="best" from="162041588#0" to="420895277#2" type="veh_passenger"/>
    <trip id="veh241" depart="122.33" departLane="best" from="-496995905" to="384826723#1" type="veh_passenger"/>
    <trip id="veh242" depart="122.84" departLane="best" from="196117075#1" to="347306313" type="veh_passenger"/>
    <trip id="veh243" depart="123.35" departLane="best" from="5669875#0" to="384826723#1" type="veh_passenger"/>
    <trip id="veh245" depart="124.37" departLane="best" from="226041020" to="-5672415#0" type="veh_passenger"/>
    <trip id="veh246" depart="124.87" departLane="best" from="-381477008#1" to="458166897#11" type="veh_passenger"/>
    <trip id="veh248" depart="125.89" departLane="best" from="474635905#3" to="5670044#6" type="veh_passenger"/>
    <trip id="veh249" depart="126.40" departLane="best" from="480112475#0" to="5669643#1" type="veh_passenger"/>
    <trip id="veh250" depart="126.90" departLane="best" from="611258687#0" to="195743556#3" type="veh_passenger"/>
    <trip id="veh251" depart="127.41" departLane="best" from="-384178812#1" to="194923795#0" type="veh_passenger"/>
    <trip id="veh252" depart="127.92" departLane="best" from="156994977#0" to="480112479" type="veh_passenger"/>
    <trip id="veh253" depart="128.43" departLane="best" from="46334600#0" to="196117090#5" type="veh_passenger"/>
    <trip id="veh254" depart="128.93" departLane="best" from="496990647#2" to="5669953#4" type="veh_passenger"/>
    <trip id="veh255" depart="129.44" departLane="best" from="194923806#2" to="46469725" type="veh_passenger"/>
    <trip id="veh256" depart="129.95" departLane="best" from="5668989" to="11878022#0" type="veh_passenger"/>
    <trip id="veh257" depart="130.46" departLane="best" from="5670876#1" to="628093103#2" type="veh_passenger"/>
    <trip id="veh258" depart="130.96" departLane="best" from="125479715#0" to="-420356169#0" type="veh_passenger"/>
    <trip id="veh259" depart="131.47" departLane="best" from="33804436#9" to="483236728#6" type="veh_passenger"/>
    <trip id="veh260" depart="131.98" departLane="best" from="619277989#1" to="396444293#0" type="veh_passenger"/>
    <trip id="veh261" depart="132.49" departLane="best" from="506680905" to="-5671774#5" type="veh_passenger"/>
    <trip id="veh262" depart="132.99" departLane="best" from="118714476#0" to="5669976#2" type="veh_passenger"/>
    <trip id="veh263" depart="133.50" departLane="best" from="5671440#1" to="464683336" type="veh_passenger"/>
    <trip id="veh264" depart="134.01" departLane="best" from="134485639" to="68668541#7" type="veh_passenger"/>
    <trip id="veh265" depart="134.52" departLane="best" from="5670254#2" to="36271338#6" type="veh_passenger"/>
    <trip id="veh266" depart="135.02" departLane="best" from="420598230#0" to="381565180#0" type="veh_passenger"/>
    <trip id="veh267" depart="135.53" departLane="best" from="458106345#0" to="350726031" type="veh_passenger"/>
    <trip id="veh268" depart="136.04" departLane="best" from="5671440#0" to="5670876#0" type="veh_passenger"/>