<?xml version="1.0" encoding="UTF-8"?>
<!-- generated on 2018-10-28 14:40:28.309161 by $Id$
  options: 
-->
<routes xmlns:xsi="http://www.w3.org/2001/XMLSchema-instance" xsi:noNamespaceSchemaLocation="http://sumo.dlr.de/xsd/routes_file.xsd">
    <vType id="ped_pedestrian" vClass="pedestrian"/>
    <person id="ped0" depart="0.00" type="ped_pedestrian">
        <walk from="277945810#0" to="22909732#3"/>
    </person>
    <person id="ped1" depart="0.38" type="ped_pedestrian">
        <walk from="495508614#1" to="46481095#6"/>
    </person>
    <person id="ped2" depart="0.76" type="ped_pedestrian">
        <walk from="5670719#8" to="-5670254#2"/>
    </person>
    <person id="ped3" depart="1.14" type="ped_pedestrian">
        <walk from="462605612#17" to="428567982"/>
    </person>
    <person id="ped4" depart="1.52" type="ped_pedestrian">
        <walk from="22909711#4" to="433144129"/>
    </person>
    <person id="ped5" depart="1.91" type="ped_pedestrian">
        <walk from="527855906" to="-195743208#0"/>
    </person>
    <person id="ped6" depart="2.29" type="ped_pedestrian">
        <walk from="526857494" to="471523502#3"/>
    </person>
    <person id="ped7" depart="2.67" type="ped_pedestrian">
        <walk from="584971399" to="354393791#1"/>
    </person>
    <person id="ped8" depart="3.05" type="ped_pedestrian">
        <walk from="541448657" to="451905565#3"/>
    </person>
    <person id="ped9" depart="3.43" type="ped_pedestrian">
        <walk from="527623200" to="489019753#1"/>
    </person>
    <person id="ped10" depart="3.81" type="ped_pedestrian">
        <walk from="425109409" to="610906274"/>
    </person>
    <person id="ped11" depart="4.19" type="ped_pedestrian">
        <walk from="368938761#1" to="428568020#2"/>
    </person>
    <person id="ped12" depart="4.57" type="ped_pedestrian">
        <walk from="530038714#0" to="458166892#0"/>
    </person>
    <person id="ped13" depart="4.96" type="ped_pedestrian">
        <walk from="554083353#0" to="430610568#2"/>
    </person>
    <person id="ped14" depart="5.34" type="ped_pedestrian">
        <walk from="474635898#0" to="-428569470#1"/>
    </person>
    <person id="ped15" depart="5.72" type="ped_pedestrian">
        <walk from="22909798#2" to="297995664#2"/>
    </person>
    <person id="ped16" depart="6.10" type="ped_pedestrian">
        <walk from="-570148921" to="277951749#2"/>
    </person>
    <person id="ped17" depart="6.48" type="ped_pedestrian">
        <walk from="459820149#2" to="362824456#0"/>
    </person>
    <person id="ped18" depart="6.86" type="ped_pedestrian">
        <walk from="277945788" to="5672713#0"/>
    </person>
    <person id="ped19" depart="7.24" type="ped_pedestrian">
        <walk from="462605611#1" to="453367786#4"/>
    </person>
    <person id="ped20" depart="7.62" type="ped_pedestrian">
        <walk from="196117074" to="489019752#3"/>
    </person>
    <person id="ped21" depart="8.01" type="ped_pedestrian">
        <walk from="195743343#0" to="368938762#0"/>
    </person>
    <person id="ped22" depart="8.39" type="ped_pedestrian">
        <walk from="630828586#2" to="460606347#1"/>
    </person>
    <person id="ped23" depart="8.77" type="ped_pedestrian">
        <walk from="541329572#0" to="509025012"/>
    </person>
    <person id="ped24" depart="9.15" type="ped_pedestrian">
        <walk from="5670011#1" to="33804436#5"/>
    </person>
    <person id="ped25" depart="9.53" type="ped_pedestrian">
        <walk from="46334598#3" to="378363612#2"/>
    </person>
    <person id="ped26" depart="9.91" type="ped_pedestrian">
        <walk from="5671668#0" to="385106580#0"/>
    </person>
    <person id="ped27" depart="10.29" type="ped_pedestrian">
        <walk from="277945781" to="22986670#6"/>
    </person>
    <person id="ped28" depart="10.67" type="ped_pedestrian">
        <walk from="433144115#1" to="5670836#2"/>
    </person>
    <person id="ped29" depart="11.06" type="ped_pedestrian">
        <walk from="68674961#4" to="420496529"/>
    </person>
    <person id="ped30" depart="11.44" type="ped_pedestrian">
        <walk from="-5671701" to="-438384743"/>
    </person>
    <person id="ped31" depart="11.82" type="ped_pedestrian">
        <walk from="-618613775" to="458177133#0"/>
    </person>
    <person id="ped32" depart="12.20" type="ped_pedestrian">
        <walk from="-46469727#3" to="369686009#2"/>
    </person>
    <person id="ped33" depart="12.58" type="ped_pedestrian">
        <walk from="610906268#1" to="552447291"/>
    </person>
    <person id="ped34" depart="12.96" type="ped_pedestrian">
        <walk from="-222299276#4" to="481842395#3"/>
    </person>
    <person id="ped35" depart="13.34" type="ped_pedestrian">
        <walk from="46490538#1" to="425116728"/>
    </person>
    <person id="ped36" depart="13.72" type="ped_pedestrian">
        <walk from="385105829#0" to="576185022#0"/>
    </person>
    <person id="ped37" depart="14.11" type="ped_pedestrian">
        <walk from="5669976#2" to="277945779#0"/>
    </person>
    <person id="ped38" depart="14.49" type="ped_pedestrian">
        <walk from="5671429#7" to="5669669#3"/>
    </person>
    <person id="ped39" depart="14.87" type="ped_pedestrian">
        <walk from="297995674#12" to="459887831"/>
    </person>
    <person id="ped40" depart="15.25" type="ped_pedestrian">
        <walk from="453367786#4" to="194923807#6"/>
    </person>
    <person id="ped41" depart="15.63" type="ped_pedestrian">
        <walk from="496992363#0" to="428252314#2"/>
    </person>
    <person id="ped42" depart="16.01" type="ped_pedestrian">
        <walk from="509025022" to="420901679"/>
    </person>
    <person id="ped43" depart="16.39" type="ped_pedestrian">
        <walk from="-116672333#3" to="348477348#4"/>
    </person>
    <person id="ped44" depart="16.77" type="ped_pedestrian">
        <walk from="5670044#5" to="530038747#1"/>
    </person>
    <person id="ped45" depart="17.15" type="ped_pedestrian">
        <walk from="319773434#0" to="-464683318"/>
    </person>
    <person id="ped46" depart="17.54" type="ped_pedestrian">
        <walk from="-500717384" to="496986855"/>
    </person>
    <person id="ped47" depart="17.92" type="ped_pedestrian">
        <walk from="497746843#1" to="127693388#0"/>
    </person>
    <person id="ped48" depart="18.30" type="ped_pedestrian">
        <walk from="388275229#0" to="428568013#0"/>
    </person>
    <person id="ped49" depart="18.68" type="ped_pedestrian">
        <walk from="277945781" to="5669806#1"/>
    </person>
    <person id="ped50" depart="19.06" type="ped_pedestrian">
        <walk from="384174885#0" to="22904062#0"/>
    </person>
    <person id="ped51" depart="19.44" type="ped_pedestrian">
        <walk from="428252314#2" to="489019754#0"/>
    </person>
    <person id="ped52" depart="19.82" type="ped_pedestrian">
        <walk from="22819473#1" to="335935797#1"/>
    </person>
    <person id="ped53" depart="20.20" type="ped_pedestrian">
        <walk from="68668541#7" to="462605612#17"/>
    </person>
    <person id="ped54" depart="20.59" type="ped_pedestrian">
        <walk from="385105193#5" to="420598266"/>
    </person>
    <person id="ped55" depart="20.97" type="ped_pedestrian">
        <walk from="354393792#2" to="433144123#1"/>
    </person>
    <person id="ped56" depart="21.35" type="ped_pedestrian">
        <walk from="22909859#0" to="22909711#3"/>
    </person>
    <person id="ped57" depart="21.73" type="ped_pedestrian">
        <walk from="-524411039" to="459810322#0"/>
    </person>
    <person id="ped58" depart="22.11" type="ped_pedestrian">
        <walk from="22916379#0" to="464683339#1"/>
    </person>
    <person id="ped59" depart="22.49" type="ped_pedestrian">
        <walk from="5672710#2" to="430387231#1"/>
    </person>
    <person id="ped60" depart="22.87" type="ped_pedestrian">
        <walk from="388240124#6" to="509025062"/>
    </person>
    <person id="ped61" depart="23.25" type="ped_pedestrian">
        <walk from="527623202#2" to="226041001#3"/>
    </person>
    <person id="ped62" depart="23.64" type="ped_pedestrian">
        <walk from="384174886#0" to="385107994"/>
    </person>
    <person id="ped63" depart="24.02" type="ped_pedestrian">
        <walk from="489019752#3" to="46469727#2"/>
    </person>
    <person id="ped64" depart="24.40" type="ped_pedestrian">
        <walk from="626226775#1" to="-5673367#2"/>
    </person>
    <person id="ped65" depart="24.78" type="ped_pedestrian">
        <walk from="380099776" to="354393794#2"/>
    </person>
    <person id="ped66" depart="25.16" type="ped_pedestrian">
        <walk from="554083353#0" to="22986678#0"/>
    </person>
    <person id="ped67" depart="25.54" type="ped_pedestrian">
        <walk from="226041001#2" to="385105818"/>
    </person>
    <person id="ped68" depart="25.92" type="ped_pedestrian">
        <walk from="384174882#0" to="279829745#1"/>
    </person>
    <person id="ped69" depart="26.30" type="ped_pedestrian">
        <walk from="385105203#0" to="554083352#0"/>
    </person>
    <person id="ped70" depart="26.69" type="ped_pedestrian">
        <walk from="428568013#1" to="-456308945"/>
    </person>
    <person id="ped71" depart="27.07" type="ped_pedestrian">
        <walk from="68674968#2" to="530059893#0"/>
    </person>
    <person id="ped72" depart="27.45" type="ped_pedestrian">
        <walk from="602277848" to="5672412#0"/>
    </person>
    <person id="ped73" depart="27.83" type="ped_pedestrian">
        <walk from="379977078#0" to="-464683328"/>
    </person>
    <person id="ped74" depart="28.21" type="ped_pedestrian">
        <walk from="368938761#5" to="628093103#1"/>
    </person>
    <person id="ped75" depart="28.59" type="ped_pedestrian">
        <walk from="277945782" to="509025059"/>
    </person>
    <person id="ped76" depart="28.97" type="ped_pedestrian">
        <walk from="584971399" to="68668552#1"/>
    </person>
    <person id="ped77" depart="29.35" type="ped_pedestrian">
        <walk from="194923811" to="297995672#7"/>
    </person>
    <person id="ped78" depart="29.74" type="ped_pedestrian">
        <walk from="602266745" to="430610884#2"/>
    </person>
    <person id="ped79" depart="30.12" type="ped_pedestrian">
        <walk from="409726396" to="543530720"/>
    </person>
    <person id="ped80" depart="30.50" type="ped_pedestrian">
        <walk from="-546173266" to="226040996#0"/>
    </person>
    <person id="ped81" depart="30.88" type="ped_pedestrian">
        <walk from="22914179#3" to="109325988#1"/>
    </person>
    <person id="ped82" depart="31.26" type="ped_pedestrian">
        <walk from="5670719#12" to="22986670#4"/>
    </person>
    <person id="ped83" depart="31.64" type="ped_pedestrian">
        <walk from="382535027#2" to="433144114#0"/>
    </person>
    <person id="ped84" depart="32.02" type="ped_pedestrian">
        <walk from="420598402#1" to="5672681#6"/>
    </person>
    <person id="ped85" depart="32.40" type="ped_pedestrian">
        <walk from="22897633#1" to="480112475#0"/>
    </person>
    <person id="ped86" depart="32.78" type="ped_pedestrian">
        <walk from="46469723" to="297995674#4"/>
    </person>
    <person id="ped87" depart="33.17" type="ped_pedestrian">
        <walk from="-526571477#1" to="385106579#0"/>
    </person>
    <person id="ped88" depart="33.55" type="ped_pedestrian">
        <walk from="68674965" to="68674960"/>
    </person>
    <person id="ped89" depart="33.93" type="ped_pedestrian">
        <walk from="277945782" to="5672681#1"/>
    </person>
    <person id="ped90" depart="34.31" type="ped_pedestrian">
        <walk from="364567535#0" to="194926842#1"/>
    </person>
    <person id="ped91" depart="34.69" type="ped_pedestrian">
        <walk from="457948932#6" to="630828583"/>
    </person>
    <person id="ped92" depart="35.07" type="ped_pedestrian">
        <walk from="527856276#1" to="297995674#27"/>
    </person>
    <person id="ped93" depart="35.45" type="ped_pedestrian">
        <walk from="464543615#2" to="5672965#2"/>
    </person>
    <person id="ped94" depart="35.83" type="ped_pedestrian">
        <walk from="156994961#0" to="109294069#1"/>
    </person>
    <person id="ped95" depart="36.22" type="ped_pedestrian">
        <walk from="-597821267#3" to="428569470#0"/>
    </person>
    <person id="ped96" depart="36.60" type="ped_pedestrian">
        <walk from="277945800" to="452059591#5"/>
    </person>
    <person id="ped97" depart="36.98" type="ped_pedestrian">
        <walk from="480112478#1" to="22819598"/>
    </person>
    <person id="ped98" depart="37.36" type="ped_pedestrian">
        <walk from="459820147" to="277945780#1"/>
    </person>
    <person id="ped99" depart="37.74" type="ped_pedestrian">
        <walk from="541448652" to="-5671774#3"/>
    </person>
    <person id="ped100" depart="38.12" type="ped_pedestrian">
        <walk from="384174886#0" to="277945815#1"/>
    </person>
    <person id="ped101" depart="38.50" type="ped_pedestrian">
        <walk from="-194923807#1" to="505034229"/>
    </person>
    <person id="ped102" depart="38.88" type="ped_pedestrian">
        <walk from="459820150#3" to="277945775#1"/>
    </person>
    <person id="ped103" depart="39.27" type="ped_pedestrian">
        <walk from="495520678#1" to="428568020#1"/>
    </person>
    <person id="ped104" depart="39.65" type="ped_pedestrian">
        <walk from="384177096" to="-196117074"/>
    </person>
    <person id="ped105" depart="40.03" type="ped_pedestrian">
        <walk from="-528755491#0" to="5670296#2"/>
    </person>
    <person id="ped106" depart="40.41" type="ped_pedestrian">
        <walk from="5671261#0" to="428567987#0"/>
    </person>
    <person id="ped107" depart="40.79" type="ped_pedestrian">
        <walk from="530059885" to="433144109#1"/>
    </person>
    <person id="ped108" depart="41.17" type="ped_pedestrian">
        <walk from="194923792#0" to="127693383#5"/>
    </person>
    <person id="ped109" depart="41.55" type="ped_pedestrian">
        <walk from="31984130" to="5670836#6"/>
    </person>
    <person id="ped110" depart="41.93" type="ped_pedestrian">
        <walk from="512052143#1" to="552447291"/>
    </person>
    <person id="ped111" depart="42.32" type="ped_pedestrian">
        <walk from="5670836#6" to="22904020#0"/>
    </person>
    <person id="ped112" depart="42.70" type="ped_pedestrian">
        <walk from="22986690" to="-570150866#2"/>
    </person>
    <person id="ped113" depart="43.08" type="ped_pedestrian">
        <walk from="509025027" to="5670297#0"/>
    </person>
    <person id="ped114" depart="43.46" type="ped_pedestrian">
        <walk from="380817545#4" to="458166896#1"/>
    </person>
    <person id="ped115" depart="43.84" type="ped_pedestrian">
        <walk from="194923808#8" to="5672487#1"/>
    </person>
    <person id="ped116" depart="44.22" type="ped_pedestrian">
        <walk from="527855913#1" to="5670254#0"/>
    </person>
    <person id="ped117" depart="44.60" type="ped_pedestrian">
        <walk from="350726028#3" to="5672487#3"/>
    </person>
    <person id="ped118" depart="44.98" type="ped_pedestrian">
        <walk from="525727824#1" to="558008153#0"/>
    </person>
    <person id="ped119" depart="45.37" type="ped_pedestrian">
        <walk from="511809758" to="-611258687#0"/>
    </person>
    <person id="ped120" depart="45.75" type="ped_pedestrian">
        <walk from="5669806#0" to="546665387#1"/>
    </person>
    <person id="ped121" depart="46.13" type="ped_pedestrian">
        <walk from="385106582" to="309346178"/>
    </person>
    <person id="ped122" depart="46.51" type="ped_pedestrian">
        <walk from="-381477008#1" to="226041004#2"/>
    </person>
    <person id="ped123" depart="46.89" type="ped_pedestrian">
        <walk from="350563861#2" to="558490192#0"/>
    </person>
    <person id="ped124" depart="47.27" type="ped_pedestrian">
        <walk from="46139021" to="379961828"/>
    </person>
    <person id="ped125" depart="47.65" type="ped_pedestrian">
        <walk from="619277989#0" to="425109409"/>
    </person>
    <person id="ped126" depart="48.03" type="ped_pedestrian">
        <walk from="5672965#3" to="109294069#1"/>
    </person>
    <person id="ped127" depart="48.42" type="ped_pedestrian">
        <walk from="597821266#8" to="277945783"/>
    </person>
    <person id="ped128" depart="48.80" type="ped_pedestrian">
        <walk from="489019752#1" to="33804436#12"/>
    </person>
    <person id="ped129" depart="49.18" type="ped_pedestrian">
        <walk from="452617302" to="420512231#2"/>
    </person>
    <person id="ped130" depart="49.56" type="ped_pedestrian">
        <walk from="375603427" to="430610568#0"/>
    </person>
    <person id="ped131" depart="49.94" type="ped_pedestrian">
        <walk from="277885764" to="474864230#1"/>
    </person>
    <person id="ped132" depart="50.32" type="ped_pedestrian">
        <walk from="-144001606#1" to="5672273#0"/>
    </person>
    <person id="ped133" depart="50.70" type="ped_pedestrian">
        <walk from="362824454#2" to="-500717404#1"/>
    </person>
    <person id="ped134" depart="51.08" type="ped_pedestrian">
        <walk from="464683316#2" to="350563861#7"/>
    </person>
    <person id="ped135" depart="51.46" type="ped_pedestrian">
        <walk from="481403099#0" to="297995674#8"/>
    </person>
    <person id="ped136" depart="51.85" type="ped_pedestrian">
        <walk from="329234500#0" to="380991634#1"/>
    </person>
    <person id="ped137" depart="52.23" type="ped_pedestrian">
        <walk from="380096992#1" to="297995672#3"/>
    </person>
    <person id="ped138" depart="52.61" type="ped_pedestrian">
        <walk from="127693383#4" to="382535030#1"/>
    </person>
    <person id="ped139" depart="52.99" type="ped_pedestrian">
        <walk from="297995675#3" to="428567989#3"/>
    </person>
    <person id="ped140" depart="53.37" type="ped_pedestrian">
        <walk from="-116672333#2" to="297995660#1"/>
    </person>
    <person id="ped141" depart="53.75" type="ped_pedestrian">
        <walk from="385105201#0" to="22909152#0"/>
    </person>
    <person id="ped142" depart="54.13" type="ped_pedestrian">
        <walk from="388275223#0" to="5670941#2"/>
    </person>
    <person id="ped143" depart="54.51" type="ped_pedestrian">
        <walk from="512052143#0" to="196117042#4"/>
    </person>
    <person id="ped144" depart="54.90" type="ped_pedestrian">
        <walk from="-5670044#3" to="420522695#1"/>
    </person>
    <person id="ped145" depart="55.28" type="ped_pedestrian">
        <walk from="459815272#1" to="353075126#1"/>
    </person>
    <person id="ped146" depart="55.66" type="ped_pedestrian">
        <walk from="22935899" to="388275228#2"/>
    </person>
    <person id="ped147" depart="56.04" type="ped_pedestrian">
        <walk from="541954976#1" to="-526571477#2"/>
    </person>
    <person id="ped148" depart="56.42" type="ped_pedestrian">
        <walk from="382532143#1" to="459810320#0"/>
    </person>
    <person id="ped149" depart="56.80" type="ped_pedestrian">
        <walk from="46334599#1" to="-195743164#0"/>
    </person>
    <person id="ped150" depart="57.18" type="ped_pedestrian">
        <walk from="495520704" to="500717404#1"/>
    </person>
    <person id="ped151" depart="57.56" type="ped_pedestrian">
        <walk from="197582875#0" to="587038081#1"/>
    </person>
    <person id="ped152" depart="57.95" type="ped_pedestrian">
        <walk from="420598294#0" to="-456308944"/>
    </person>
    <person id="ped153" depart="58.33" type="ped_pedestrian">
        <walk from="22986689" to="541448660"/>
    </person>
    <person id="ped154" depart="58.71" type="ped_pedestrian">
        <walk from="385106574" to="525727823#2"/>
    </person>
    <person id="ped155" depart="59.09" type="ped_pedestrian">
        <walk from="464683329#1" to="630828584#1"/>
    </person>
    <person id="ped156" depart="59.47" type="ped_pedestrian">
        <walk from="480112481#0" to="415849235#2"/>
    </person>
    <person id="ped157" depart="59.85" type="ped_pedestrian">
        <walk from="530038719#1" to="428567989#3"/>
    </person>
    <person id="ped158" depart="60.23" type="ped_pedestrian">
        <walk from="5670836#0" to="495520684#1"/>
    </person>
    <person id="ped159" depart="60.61" type="ped_pedestrian">
        <walk from="388275224#3" to="277885774#0"/>
    </person>
    <person id="ped160" depart="61.00" type="ped_pedestrian">
        <walk from="22986671#1" to="459853438#1"/>
    </person>
    <person id="ped161" depart="61.38" type="ped_pedestrian">
        <walk from="497746843#1" to="420598345"/>
    </person>
    <person id="ped162" depart="61.76" type="ped_pedestrian">
        <walk from="-542096278#1" to="297995652#1"/>
    </person>
    <person id="ped163" depart="62.14" type="ped_pedestrian">
        <walk from="277945798#1" to="345599205#1"/>
    </person>
    <person id="ped164" depart="62.52" type="ped_pedestrian">
        <walk from="428567976#0" to="160942006#0"/>
    </person>
    <person id="ped165" depart="62.90" type="ped_pedestrian">
        <walk from="22909869#0" to="46610719#2"/>
    </person>
    <person id="ped166" depart="63.28" type="ped_pedestrian">
        <walk from="474635905#2" to="-464902521"/>
    </person>
    <person id="ped167" depart="63.66" type="ped_pedestrian">
        <walk from="380991633" to="428567977#3"/>
    </person>
    <person id="ped168" depart="64.05" type="ped_pedestrian">
        <walk from="382532605#1" to="228996436#3"/>
    </person>
    <person id="ped169" depart="64.43" type="ped_pedestrian">
        <walk from="382535030#0" to="5671315"/>
    </person>
    <person id="ped170" depart="64.81" type="ped_pedestrian">
        <walk from="433144114#1" to="46610734#0"/>
    </person>
    <person id="ped171" depart="65.19" type="ped_pedestrian">
        <walk from="546143802" to="497746843#0"/>
    </person>
    <person id="ped172" depart="65.57" type="ped_pedestrian">
        <walk from="368939315" to="-195743164#1"/>
    </person>
    <person id="ped173" depart="65.95" type="ped_pedestrian">
        <walk from="543717203#0" to="573476360"/>
    </person>
    <person id="ped174" depart="66.33" type="ped_pedestrian">
        <walk from="382535027#2" to="495520692#1"/>
    </person>
    <person id="ped175" depart="66.71" type="ped_pedestrian">
        <walk from="428567987#2" to="451905565#2"/>
    </person>
    <person id="ped176" depart="67.09" type="ped_pedestrian">
        <walk from="22909711#4" to="22909711#1"/>
    </person>
    <person id="ped177" depart="67.48" type="ped_pedestrian">
        <walk from="385001975#1" to="-384826723#4"/>
    </person>
    <person id="ped178" depart="67.86" type="ped_pedestrian">
        <walk from="380817542" to="195743556#3"/>
    </person>
    <person id="ped179" depart="68.24" type="ped_pedestrian">
        <walk from="385107995" to="127693383#5"/>
    </person>
    <person id="ped180" depart="68.62" type="ped_pedestrian">
        <walk from="458166896#3" to="-384178812#0"/>
    </person>
    <person id="ped181" depart="69.00" type="ped_pedestrian">
        <walk from="378363535#1" to="430380403"/>
    </person>
    <person id="ped182" depart="69.38" type="ped_pedestrian">
        <walk from="-384178812#1" to="46171876#10"/>
    </person>
    <person id="ped183" depart="69.76" type="ped_pedestrian">
        <walk from="-456308944" to="368938761#5"/>
    </person>
    <person id="ped184" depart="70.14" type="ped_pedestrian">
        <walk from="22904062#0" to="350563861#13"/>
    </person>
    <person id="ped185" depart="70.53" type="ped_pedestrian">
        <walk from="495520960#1" to="530038747#2"/>
    </person>
    <person id="ped186" depart="70.91" type="ped_pedestrian">
        <walk from="-368938760#0" to="428252314#2"/>
    </person>
    <person id="ped187" depart="71.29" type="ped_pedestrian">
        <walk from="68674968#4" to="354393961#0"/>
    </person>
    <person id="ped188" depart="71.67" type="ped_pedestrian">
        <walk from="462605612#18" to="509025042"/>
    </person>
    <person id="ped189" depart="72.05" type="ped_pedestrian">
        <walk from="462605612#23" to="495537431#0"/>
    </person>
    <person id="ped190" depart="72.43" type="ped_pedestrian">
        <walk from="570150866#1" to="226193933#7"/>
    </person>
    <person id="ped191" depart="72.81" type="ped_pedestrian">
        <walk from="-376545878" to="194923807#2"/>
    </person>
    <person id="ped192" depart="73.19" type="ped_pedestrian">
        <walk from="127693383#0" to="464683339#2"/>
    </person>
    <person id="ped193" depart="73.58" type="ped_pedestrian">
        <walk from="196117028#1" to="453239586#0"/>
    </person>
    <person id="ped194" depart="73.96" type="ped_pedestrian">
        <walk from="527867884" to="598592965#3"/>
    </person>
    <person id="ped195" depart="74.34" type="ped_pedestrian">
        <walk from="-611258687#0" to="-381500065"/>
    </person>
    <person id="ped196" depart="74.72" type="ped_pedestrian">
        <walk from="335935798#1" to="46481747#0"/>
    </person>
    <person id="ped197" depart="75.10" type="ped_pedestrian">
        <walk from="477873431#2" to="-528755493#2"/>
    </person>
    <person id="ped198" depart="75.48" type="ped_pedestrian">
        <walk from="-570150865" to="506680906#1"/>
    </person>
    <person id="ped199" depart="75.86" type="ped_pedestrian">
        <walk from="542096278#2" to="447001271#2"/>
    </person>
    <person id="ped200" depart="76.24" type="ped_pedestrian">
        <walk from="111051084" to="626226775#0"/>
    </person>
    <person id="ped201" depart="76.63" type="ped_pedestrian">
        <walk from="509025050" to="354393805#1"/>
    </person>
    <person id="ped202" depart="77.01" type="ped_pedestrian">
        <walk from="418995536#1" to="354393795#1"/>
    </person>
    <person id="ped203" depart="77.39" type="ped_pedestrian">
        <walk from="541954976#1" to="527873714#0"/>
    </person>
    <person id="ped204" depart="77.77" type="ped_pedestrian">
        <walk from="459820149#1" to="530038711#1"/>
    </person>
    <person id="ped205" depart="78.15" type="ped_pedestrian">
        <walk from="474864229#2" to="385001975#0"/>
    </person>
    <person id="ped206" depart="78.53" type="ped_pedestrian">
        <walk from="492489893" to="598592965#6"/>
    </person>
    <person id="ped207" depart="78.91" type="ped_pedestrian">
        <walk from="426651391#0" to="391427023"/>
    </person>
    <person id="ped208" depart="79.29" type="ped_pedestrian">
        <walk from="277945793" to="542257009#2"/>
    </person>
    <person id="ped209" depart="79.68" type="ped_pedestrian">
        <walk from="530038719#1" to="-5670254#1"/>
    </person>
    <person id="ped210" depart="80.06" type="ped_pedestrian">
        <walk from="385106980#2" to="457948932#1"/>
    </person>
    <person id="ped211" depart="80.44" type="ped_pedestrian">
        <walk from="368938761#5" to="-384826723#0"/>
    </person>
    <person id="ped212" depart="80.82" type="ped_pedestrian">
        <walk from="542096279#1" to="222299276#0"/>
    </person>
    <person id="ped213" depart="81.20" type="ped_pedestrian">
        <walk from="354393794#6" to="5670106#3"/>
    </person>
    <person id="ped214" depart="81.58" type="ped_pedestrian">
        <walk from="-196117075#1" to="570148920"/>
    </person>
    <person id="ped215" depart="81.96" type="ped_pedestrian">
        <walk from="-5670044#6" to="481403099#1"/>
    </person>
    <person id="ped216" depart="82.34" type="ped_pedestrian">
        <walk from="396444293#0" to="496979224#0"/>
    </person>
    <person id="ped217" depart="82.72" type="ped_pedestrian">
        <walk from="396444294#4" to="511809808"/>
    </person>
    <person id="ped218" depart="83.11" type="ped_pedestrian">
        <walk from="46608946#6" to="317378542"/>
    </person>
    <person id="ped219" depart="83.49" type="ped_pedestrian">
        <walk from="495520688#0" to="350565058"/>
    </person>
    <person id="ped220" depart="83.87" type="ped_pedestrian">
        <walk from="259744859" to="110489638#1"/>
    </person>
    <person id="ped221" depart="84.25" type="ped_pedestrian">
        <walk from="226041004#0" to="109325988#0"/>
    </person>
    <person id="ped222" depart="84.63" type="ped_pedestrian">
        <walk from="421852619#1" to="496990647#2"/>
    </person>
    <person id="ped223" depart="85.01" type="ped_pedestrian">
        <walk from="391634112" to="483704511#1"/>
    </person>
    <person id="ped224" depart="85.39" type="ped_pedestrian">
        <walk from="611258687#1" to="420872186"/>
    </person>
    <person id="ped225" depart="85.77" type="ped_pedestrian">
        <walk from="297995645" to="-570148919"/>
    </person>
    <person id="ped226" depart="86.16" type="ped_pedestrian">
        <walk from="221674463#0" to="-289360194#1"/>
    </person>
    <person id="ped227" depart="86.54" type="ped_pedestrian">
        <walk from="610906276#1" to="428569470#0"/>
    </person>
    <person id="ped228" depart="86.92" type="ped_pedestrian">
        <walk from="471523502#1" to="127693383#0"/>
    </person>
    <person id="ped229" depart="87.30" type="ped_pedestrian">
        <walk from="5668989" to="396444294#4"/>