<?xml version="1.0" encoding="UTF-8"?>

<!-- generated on 10/28/18 14:40:18 by Eclipse SUMO polyconvert Version 1.0.1
<configuration xmlns:xsi="http://www.w3.org/2001/XMLSchema-instance" xsi:noNamespaceSchemaLocation="http://sumo.dlr.de/xsd/polyconvertConfiguration.xsd">

    <input>
        <net-file value="C:\Users\Christine%20Cheng\Sumo\tools\2018-10-28-14-39-53\osm.net.xml"/>
        <osm-files value="C:\Users\Christine%20Cheng\Sumo\tools\2018-10-28-14-39-53\osm_bbox.osm.xml"/>
        <osm.keep-full-type value="true"/>
        <type-file value="C:\Users\Christine%20Cheng\Sumo\data\typemap\osmPolyconvert.typ.xml"/>
    </input>

    <output>
        <output-file value="C:\Users\Christine%20Cheng\Sumo\tools\2018-10-28-14-39-53\osm.poly.xml"/>
    </output>

    <processing>
        <poi-layer-offset value="5"/>
    </processing>

    <report>
        <verbose value="true"/>
    </report>

</configuration>
-->

<additional xmlns:xsi="http://www.w3.org/2001/XMLSchema-instance" xsi:noNamespaceSchemaLocation="http://sumo.dlr.de/xsd/additional_file.xsd">
    <location netOffset="-583336.41,-4506653.32" convBoundary="-479.01,-2218.07,13757.80,11029.01" origBoundary="-74.019132,40.686624,-73.848919,40.804409" projParameter="+proj=utm +zone=18 +ellps=WGS84 +datum=WGS84 +units=m +no_defs"/>

    <poly id="108159980" type="amenity.college" color="237,199,199" fill="1" layer="-1.00" shape="1453.380184,4503.764361 1477.134582,4548.522614 1388.562379,4595.792661 1416.257912,4647.368114 1630.934944,4532.121473 1563.415820,4408.002402 1512.513480,4435.641091 1527.709918,4463.836995 1453.380184,4503.764361"/>
    <poly id="109280421" type="building.yes" color="255,230,230" fill="1" layer="-1.00" shape="2378.618095,4037.836288 2350.401867,3985.640530 2239.752238,4045.379683 2267.993677,4097.630811 2378.618095,4037.836288"/>
    <poly id="109280428" type="building.yes" color="255,230,230" fill="1" layer="-1.00" shape="2152.558179,3825.071835 2214.478379,3791.602686 2240.291749,3777.800912 2268.673324,3830.442188 2245.399461,3842.985331 2225.319534,3853.900088 2223.042538,3855.106144 2220.051958,3856.681438 2200.451586,3867.024483 2177.710131,3879.551772 2174.056514,3872.726180 2171.080758,3867.162958 2167.096318,3859.734035 2160.239652,3863.385270 2155.456186,3865.928002 2149.270895,3869.209516 2144.410936,3871.795781 2126.787485,3838.863296 2152.558179,3825.071835"/>
    <poly id="109294057" type="leisure.park" color="207,245,201" fill="1" layer="-2.00" shape="1809.907220,3204.368758 1831.857738,3245.365852 1849.929116,3279.246362 1880.481963,3337.362100 1887.993978,3351.659236 1913.249096,3399.688966 1917.778055,3397.265270 2001.373254,3352.519565 2003.938429,3347.564223 2005.631362,3344.286368 2005.028819,3336.474605 1995.302006,3318.721278 1986.426969,3302.532074 1951.412349,3238.846771 1944.641508,3226.190119 1935.044808,3210.314645 1923.279144,3195.047062 1910.564701,3182.233269 1897.915059,3173.328206 1890.179129,3168.942725 1886.972108,3165.086711 1882.280650,3166.942350 1880.848645,3167.358872 1875.029657,3168.857387 1833.090537,3191.723268 1809.907220,3204.368758"/>
    <poly id="114071252" type="building.yes" color="255,230,230" fill="1" layer="-1.00" shape="2913.527938,5033.750556 2912.465987,5034.315510 2885.925712,5048.439493 2886.115869,5048.785875 2888.876010,5053.925028 2889.173456,5054.483602 2891.817861,5059.410466 2893.454069,5062.460421 2894.759708,5064.895905 2897.701551,5070.381346 2906.535493,5086.837774 2907.675777,5088.971576 2909.477318,5092.323220 2912.212617,5097.417684 2912.419138,5097.808667 2915.352770,5103.271815 2941.884470,5089.147840 2942.946416,5088.582891 2942.004219,5086.839969 2939.806277,5082.728748 2939.178274,5081.555699 2937.459611,5078.338240 2937.071249,5077.612072 2935.335701,5074.394416 2934.707697,5073.221368 2932.972534,5069.970411 2932.584042,5069.255344 2930.840306,5066.015390 2930.212301,5064.842342 2928.477134,5061.591386 2928.088641,5060.876319 2926.361655,5057.647663 2925.725207,5056.474518 2923.990036,5053.223563 2923.609984,5052.508595 2921.866110,5049.279744 2921.238102,5048.106697 2919.510981,5044.889144 2919.122616,5044.162976 2917.403676,5040.967724 2916.775667,5039.794677 2914.461706,5035.493376 2913.527938,5033.750556"/>
    <poly id="114193930" type="building.office" color="255,230,230" fill="1" layer="-1.00" shape="2586.452623,4742.757755 2558.125275,4689.593854 2506.616137,4717.685035 2516.258443,4735.171723 2519.293011,4733.419429 2529.056753,4751.351631 2519.303152,4756.589873 2527.818214,4772.253856 2528.380701,4773.259574 2586.452623,4742.757755"/>
    <poly id="130468201" type="amenity.ferry_terminal" color="237,199,199" fill="0" layer="-1.00" shape="3528.803802,4219.138921 3567.514576,4196.500102"/>
    <poly id="130468201#1" type="man_made.pier" color="255,230,230" fill="0" layer="-1.00" shape="3528.803802,4219.138921 3567.514576,4196.500102"/>
    <poly id="134014939" type="landuse.brownfield" color="194,194,130" fill="1" layer="-3.00" shape="3585.783794,4402.683355 3497.470052,4451.019658 3570.405621,4591.485574 3596.070357,4637.849906 3603.391591,4639.945314 3712.335163,4581.227765 3657.626285,4494.476126 3585.783794,4402.683355"/>
    <poly id="134484068" type="amenity.parking" color="184,184,179" fill="1" layer="-1.00" shape="3419.025589,3839.588490 3424.255196,3837.928860 3429.743032,3837.293663 3448.399436,3961.812774 3429.059053,3964.961404 3426.199425,3945.954198 3431.213583,3925.185099 3419.025589,3839.588490"/>
    <poly id="138022483" type="building.commercial" color="255,230,230" fill="1" layer="-1.00" shape="2864.163687,5128.644168 2868.751289,5126.199545 2869.561270,5127.696670 2884.802257,5119.580660 2900.094315,5111.431969 2915.352770,5103.271815 2912.419138,5097.808667 2912.212617,5097.417684 2909.477318,5092.323220 2907.675777,5088.971576 2906.535493,5086.837774 2897.701551,5070.381346 2894.759708,5064.895905 2893.454069,5062.460421 2891.817861,5059.410466 2889.173456,5054.483602 2888.876010,5053.925028 2886.115869,5048.785875 2885.925712,5048.439493 2870.651072,5056.532907 2855.401534,5064.648848 2840.016056,5072.840954 2835.114149,5075.448474 2835.468883,5076.163143 2842.817136,5089.704527 2837.014213,5092.834471 2824.584495,5099.517778 2818.433280,5102.832424 2811.916881,5106.331566 2820.151887,5121.304325 2826.582956,5117.881914 2832.776242,5114.578867 2851.321979,5104.702666 2864.163687,5128.644168"/>
    <poly id="138141251" type="building.yes" color="255,230,230" fill="1" layer="-1.00" shape="1551.029713,4898.776525 1559.659167,4894.301303 1559.697547,4892.425474 1560.619324,4883.454372 1562.681409,4874.440826 1565.972390,4866.496070 1574.313226,4866.580553 1575.370268,4868.646571 1579.008706,4861.327524 1584.361009,4854.017021 1590.051856,4848.109277 1597.242977,4842.429676 1604.977921,4837.922046 1612.859020,4834.659544 1620.879353,4832.508865 1629.673346,4831.366263 1638.664261,4831.458272 1640.148790,4831.586320 1646.748231,4823.024515 1650.320663,4823.676111 1659.256590,4826.354323 1663.061869,4828.052203 1663.372194,4838.536225 1670.867929,4843.107504 1675.773000,4835.048087 1678.594917,4837.089962 1684.715865,4841.534459 1682.133412,4845.113035 1688.399115,4851.657510 1693.575948,4858.911137 1697.709434,4866.585777 1700.948091,4874.982894 1703.203679,4884.434540 1707.034528,4883.901197 1707.431020,4892.021446 1707.446919,4895.785270 1697.936118,4895.387450 1697.407093,4903.963368 1706.180950,4908.982341 1705.101115,4914.054748 1702.284058,4922.626609 1700.593793,4926.448565 1690.076401,4926.216835 1685.751248,4933.039453 1679.870749,4940.021861 1673.847188,4945.492734 1666.817227,4950.374752 1658.791730,4954.457100 1651.069057,4957.166259 1643.062382,4958.872972 1634.966121,4959.557264 1626.232183,4959.157341 1624.613501,4958.950042 1625.861791,4962.006355 1621.437156,4967.939694 1620.055612,4967.668501 1614.411632,4966.549076 1607.027007,4964.077437 1605.815828,4963.674974 1603.330260,4962.491850 1597.645378,4959.784357 1593.033633,4957.000353 1585.199169,4961.362524 1551.029713,4898.776525"/>
    <poly id="138141251#1" type="leisure.stadium" color="207,245,201" fill="1" layer="-2.00" shape="1551.029713,4898.776525 1559.659167,4894.301303 1559.697547,4892.425474 1560.619324,4883.454372 1562.681409,4874.440826 1565.972390,4866.496070 1574.313226,4866.580553 1575.370268,4868.646571 1579.008706,4861.327524 1584.361009,4854.017021 1590.051856,4848.109277 1597.242977,4842.429676 1604.977921,4837.922046 1612.859020,4834.659544 1620.879353,4832.508865 1629.673346,4831.366263 1638.664261,4831.458272 1640.148790,4831.586320 1646.748231,4823.024515 1650.320663,4823.676111 1659.256590,4826.354323 1663.061869,4828.052203 1663.372194,4838.536225 1670.867929,4843.107504 1675.773000,4835.048087 1678.594917,4837.089962 1684.715865,4841.534459 1682.133412,4845.113035 1688.399115,4851.657510 1693.575948,4858.911137 1697.709434,4866.585777 1700.948091,4874.982894 1703.203679,4884.434540 1707.034528,4883.901197 1707.431020,4892.021446 1707.446919,4895.785270 1697.936118,4895.387450 1697.407093,4903.963368 1706.180950,4908.982341 1705.101115,4914.054748 1702.284058,4922.626609 1700.593793,4926.448565 1690.076401,4926.216835 1685.751248,4933.039453 1679.870749,4940.021861 1673.847188,4945.492734 1666.817227,4950.374752 1658.791730,4954.457100 1651.069057,4957.166259 1643.062382,4958.872972 1634.966121,4959.557264 1626.232183,4959.157341 1624.613501,4958.950042 1625.861791,4962.006355 1621.437156,4967.939694 1620.055612,4967.668501 1614.411632,4966.549076 1607.027007,4964.077437 1605.815828,4963.674974 1603.330260,4962.491850 1597.645378,4959.784357 1593.033633,4957.000353 1585.199169,4961.362524 1551.029713,4898.776525"/>
    <poly id="138141251#2" type="sport.multi" color="79,230,125" fill="1" layer="-2.00" shape="1551.029713,4898.776525 1559.659167,4894.301303 1559.697547,4892.425474 1560.619324,4883.454372 1562.681409,4874.440826 1565.972390,4866.496070 1574.313226,4866.580553 1575.370268,4868.646571 1579.008706,4861.327524 1584.361009,4854.017021 1590.051856,4848.109277 1597.242977,4842.429676 1604.977921,4837.922046 1612.859020,4834.659544 1620.879353,4832.508865 1629.673346,4831.366263 1638.664261,4831.458272 1640.148790,4831.586320 1646.748231,4823.024515 1650.320663,4823.676111 1659.256590,4826.354323 1663.061869,4828.052203 1663.372194,4838.536225 1670.867929,4843.107504 1675.773000,4835.048087 1678.594917,4837.089962 1684.715865,4841.534459 1682.133412,4845.113035 1688.399115,4851.657510 1693.575948,4858.911137 1697.709434,4866.585777 1700.948091,4874.982894 1703.203679,4884.434540 1707.034528,4883.901197 1707.431020,4892.021446 1707.446919,4895.785270 1697.936118,4895.387450 1697.407093,4903.963368 1706.180950,4908.982341 1705.101115,4914.054748 1702.284058,4922.626609 1700.593793,4926.448565 1690.076401,4926.216835 1685.751248,4933.039453 1679.870749,4940.021861 1673.847188,4945.492734 1666.817227,4950.374752 1658.791730,4954.457100 1651.069057,4957.166259 1643.062382,4958.872972 1634.966121,4959.557264 1626.232183,4959.157341 1624.613501,4958.950042 1625.861791,4962.006355 1621.437156,4967.939694 1620.055612,4967.668501 1614.411632,4966.549076 1607.027007,4964.077437 1605.815828,4963.674974 1603.330260,4962.491850 1597.645378,4959.784357 1593.033633,4957.000353 1585.199169,4961.362524 1551.029713,4898.776525"/>
    <poly id="138141251#3" type="tourism.attraction" color="207,245,201" fill="1" layer="-2.00" shape="1551.029713,4898.776525 1559.659167,4894.301303 1559.697547,4892.425474 1560.619324,4883.454372 1562.681409,4874.440826 1565.972390,4866.496070 1574.313226,4866.580553 1575.370268,4868.646571 1579.008706,4861.327524 1584.361009,4854.017021 1590.051856,4848.109277 1597.242977,4842.429676 1604.977921,4837.922046 1612.859020,4834.659544 1620.879353,4832.508865 1629.673346,4831.366263 1638.664261,4831.458272 1640.148790,4831.586320 1646.748231,4823.024515 1650.320663,4823.676111 1659.256590,4826.354323 1663.061869,4828.052203 1663.372194,4838.536225 1670.867929,4843.107504 1675.773000,4835.048087 1678.594917,4837.089962 1684.715865,4841.534459 1682.133412,4845.113035 1688.399115,4851.657510 1693.575948,4858.911137 1697.709434,4866.585777 1700.948091,4874.982894 1703.203679,4884.434540 1707.034528,4883.901197 1707.431020,4892.021446 1707.446919,4895.785270 1697.936118,4895.387450 1697.407093,4903.963368 1706.180950,4908.982341 1705.101115,4914.054748 1702.284058,4922.626609 1700.593793,4926.448565 1690.076401,4926.216835 1685.751248,4933.039453 1679.870749,4940.021861 1673.847188,4945.492734 1666.817227,4950.374752 1658.791730,4954.457100 1651.069057,4957.166259 1643.062382,4958.872972 1634.966121,4959.557264 1626.232183,4959.157341 1624.613501,4958.950042 1625.861791,4962.006355 1621.437156,4967.939694 1620.055612,4967.668501 1614.411632,4966.549076 1607.027007,4964.077437 1605.815828,4963.674974 1603.330260,4962.491850 1597.645378,4959.784357 1593.033633,4957.000353 1585.199169,4961.362524 1551.029713,4898.776525"/>
    <poly id="138147416" type="building.yes" color="255,230,230" fill="1" layer="-1.00" shape="1808.355514,4970.274212 1758.776597,4996.871658 1754.742132,4989.409056 1722.459852,5006.735247 1719.847281,5001.909107 1686.919611,5019.572207 1685.034617,5016.086692 1680.863430,5018.325876 1677.473863,5020.141045 1665.717539,4998.390194 1669.192169,4996.520484 1673.269867,4994.335731 1671.384987,4990.839119 1692.869531,4979.317345 1704.312744,4973.175950 1701.700148,4968.349817 1733.982541,4951.023535 1729.948024,4943.560949 1779.527181,4916.963309 1796.549726,4948.444863 1801.022410,4956.711880 1808.355514,4970.274212"/>
    <poly id="138147417" type="building.yes" color="255,230,230" fill="1" layer="-1.00" shape="1733.560468,4869.395402 1728.186335,4859.474956 1717.024205,4838.907685 1715.825339,4836.695690 1710.897600,4827.601945 1690.636914,4838.382773 1684.715865,4841.534459 1682.133412,4845.113035 1688.399115,4851.657510 1693.575948,4858.911137 1697.709434,4866.585777 1700.948091,4874.982894 1703.203679,4884.434540 1707.034528,4883.901197 1712.310903,4881.008582 1733.560468,4869.395402"/>
    <poly id="144157265" type="leisure.pitch" color="207,245,201" fill="1" layer="-2.00" shape="3244.952434,4383.905004 3225.527907,4393.636780 3200.789791,4345.019800 3219.775910,4335.238428 3244.952434,4383.905004"/>
    <poly id="144157265#1" type="sport.basketball" color="79,230,125" fill="1" layer="-2.00" shape="3244.952434,4383.905004 3225.527907,4393.636780 3200.789791,4345.019800 3219.775910,4335.238428 3244.952434,4383.905004"/>
    <poly id="144157266" type="leisure.pitch" color="207,245,201" fill="1" layer="-2.00" shape="3209.889433,4401.647567 3225.527907,4393.636780 3200.789791,4345.019800 3183.793814,4353.581006 3209.889433,4401.647567"/>
    <poly id="144157266#1" type="sport.racquet" color="79,230,125" fill="1" layer="-2.00" shape="3209.889433,4401.647567 3225.527907,4393.636780 3200.789791,4345.019800 3183.793814,4353.581006 3209.889433,4401.647567"/>
    <poly id="144177848" type="building.yes" color="255,230,230" fill="1" layer="-1.00" shape="3182.761266,4577.967404 3173.290821,4560.337493 3179.476154,4557.045731 3176.212691,4550.901396 3181.302093,4548.185259 3180.005798,4545.672119 3192.029709,4533.355805 3209.013713,4530.123563 3209.931114,4531.821819 3216.210262,4528.453467 3226.896136,4548.284773 3231.622089,4557.166268 3225.835859,4560.262809 3226.951590,4562.329758 3214.705454,4575.598213 3197.720109,4578.230903 3196.011689,4574.858074 3190.659160,4577.693253 3189.074131,4574.599423 3182.761266,4577.967404"/>
    <poly id="144177849" type="building.apartments" color="255,230,230" fill="1" layer="-1.00" shape="3444.904871,4348.196563 3464.619759,4294.970146 3477.654738,4287.961891 3484.587692,4300.888416 3492.630219,4315.682025 3501.735668,4332.719653 3464.509641,4354.110531 3451.292553,4361.538558 3444.904871,4348.196563"/>
    <poly id="144257168" type="landuse.construction" color="194,194,130" fill="1" layer="-3.00" shape="3478.477233,4616.309493 3451.019369,4565.095111 3506.646093,4535.504313 3534.103696,4586.718904 3478.477233,4616.309493"/>
    <poly id="144312950" type="amenity.parking" color="184,184,179" fill="1" layer="-1.00" shape="3162.382810,4490.810052 3146.221239,4461.189378 3158.745457,4455.207124 3193.084193,4435.823841 3209.245639,4465.444618 3162.382810,4490.810052"/>
    <poly id="144333814" type="landuse.construction" color="194,194,130" fill="1" layer="-3.00" shape="3378.475874,4161.445238 3350.213817,4176.602215 3377.910049,4227.841128 3406.171975,4212.684257 3378.475874,4161.445238"/>
    <poly id="146394812" type="building.apartments" color="255,230,230" fill="1" layer="-1.00" shape="3053.891895,3080.183984 3043.596784,3096.162220 3045.264993,3097.225266 3042.719117,3101.181294 3044.152572,3102.097275 3039.121230,3109.899014 3037.687775,3108.983034 3035.210753,3112.828844 3033.316110,3111.629935 3023.012642,3127.608101 3011.008599,3119.929870 3021.312051,3103.951688 3019.434421,3102.741880 3021.601892,3099.369853 3019.925366,3098.295613 3024.948251,3090.493763 3026.633222,3091.568102 3029.488639,3087.138281 3031.592710,3088.483957 3041.887804,3072.505705 3053.891895,3080.183984"/>
    <poly id="146394855" type="building.apartments" color="255,230,230" fill="1" layer="-1.00" shape="3129.788323,3219.990827 3119.501672,3235.969058 3121.161394,3237.032024 3118.615522,3240.988026 3120.048941,3241.904024 3115.026050,3249.705811 3113.592632,3248.789815 3111.107170,3252.635502 3109.221019,3251.436672 3098.908993,3267.425737 3086.905258,3259.747377 3097.208823,3243.758197 3095.331241,3242.548368 3097.507023,3239.187562 3095.822226,3238.102105 3100.853547,3230.300403 3102.530031,3231.374662 3105.393888,3226.944967 3107.489461,3228.290567 3117.784539,3212.312418 3129.788323,3219.990827"/>
    <poly id="146394873" type="building.apartments" color="255,230,230" fill="1" layer="-1.00" shape="3073.977290,3179.938293 3057.958350,3169.670777 3056.883447,3171.323581 3052.918556,3168.779377 3051.998234,3170.211939 3044.168996,3165.191323 3045.089188,3163.769861 3041.224840,3161.293448 3042.437560,3159.409101 3026.401903,3149.119257 3034.124810,3137.174438 3050.160613,3147.453198 3051.373079,3145.591054 3054.751302,3147.750944 3055.834909,3146.076037 3063.664161,3151.096665 3062.580552,3152.771571 3067.031707,3155.621208 3065.672974,3157.714791 3081.700245,3167.993522 3073.977290,3179.938293"/>
    <poly id="146394903" type="building.apartments" color="255,230,230" fill="1" layer="-1.00" shape="3137.512528,3146.406634 3127.217321,3162.384757 3128.885502,3163.447822 3126.339732,3167.392721 3127.773035,3168.319821 3122.741645,3176.121504 3121.308214,3175.205507 3118.822724,3179.051192 3116.936685,3177.841259 3106.632990,3193.830412 3094.629140,3186.152042 3104.932689,3170.173973 3103.055089,3168.964143 3105.222580,3165.592140 3103.537637,3164.517782 3108.569014,3156.716086 3110.253958,3157.790445 3113.109402,3153.360654 3115.213439,3154.706354 3125.508631,3138.728216 3137.512528,3146.406634"/>
    <poly id="146395025" type="leisure.playground" color="207,245,201" fill="1" layer="-2.00" shape="2998.040896,3197.893971 3019.502249,3163.616079 2987.473627,3143.714258 2966.003926,3177.992142 2998.040896,3197.893971"/>
    <poly id="146395064" type="leisure.pitch" color="207,245,201" fill="1" layer="-2.00" shape="2913.406868,3236.865611 2922.850062,3222.209555 2899.378605,3207.192742 2889.935441,3221.848827 2913.406868,3236.865611"/>
    <poly id="146395064#1" type="sport.basketball" color="79,230,125" fill="1" layer="-2.00" shape="2913.406868,3236.865611 2922.850062,3222.209555 2899.378605,3207.192742 2889.935441,3221.848827 2913.406868,3236.865611"/>
    <poly id="146396827" type="leisure.pitch" color="207,245,201" fill="1" layer="-2.00" shape="3066.342295,3136.517370 3074.314192,3141.617387 3085.925059,3123.611725 3077.953149,3118.511696 3066.342295,3136.517370"/>
    <poly id="146396827#1" type="sport.paddle_tennis" color="79,230,125" fill="1" layer="-2.00" shape="3066.342295,3136.517370 3074.314192,3141.617387 3085.925059,3123.611725 3077.953149,3118.511696 3066.342295,3136.517370"/>
    <poly id="146396838" type="leisure.pitch" color="207,245,201" fill="1" layer="-2.00" shape="3057.758761,3130.999452 3065.730670,3136.099459 3077.341523,3118.093784 3069.369602,3112.993764 3057.758761,3130.999452"/>
    <poly id="146396838#1" type="sport.paddle_tennis" color="79,230,125" fill="1" layer="-2.00" shape="3057.758761,3130.999452 3065.730670,3136.099459 3077.341523,3118.093784 3069.369602,3112.993764 3057.758761,3130.999452"/>
    <poly id="146396843" type="leisure.pitch" color="207,245,201" fill="1" layer="-2.00" shape="2849.072523,3085.782434 2880.823918,3068.576855 2867.179804,3043.593664 2835.428337,3060.799302 2849.072523,3085.782434"/>
    <poly id="146396843#1" type="sport.baseball" color="79,230,125" fill="1" layer="-2.00" shape="2849.072523,3085.782434 2880.823918,3068.576855 2867.179804,3043.593664 2835.428337,3060.799302 2849.072523,3085.782434"/>
    <poly id="146967028" type="amenity.hospital" color="237,199,199" fill="1" layer="-1.00" shape="2998.470368,3527.179470 2931.737421,3404.799972 3094.842369,3317.793475 3159.348650,3439.782120 2998.470368,3527.179470"/>
    <poly id="147077266" type="landuse.residential" color="235,235,227" fill="1" layer="-3.00" shape="3382.604115,3633.249109 3405.727747,3625.836944 3409.567068,3514.970576 3411.545930,3446.903754 3413.691838,3402.086962 3413.050638,3399.148469 3416.469617,3355.956402 3393.987266,3367.672620 3329.717801,3401.215693 3307.889610,3360.603925 3267.967389,3381.109489 3258.062873,3386.778034 3280.348475,3433.068233 3361.455249,3586.627681 3372.324200,3610.391472 3382.604115,3633.249109"/>
    <poly id="147336948" type="man_made.pier" color="255,230,230" fill="1" layer="-1.00" shape="3528.803802,4219.138921 3567.514576,4196.500102 3572.996686,4206.412088 3571.405384,4207.459242 3584.405950,4232.203204 3594.125293,4227.132460 3580.661697,4202.272028 3576.261375,4204.518585 3570.887072,4194.774394 3573.217197,4193.369530 3564.994820,4177.352479 3561.538541,4179.021696 3556.205112,4169.389019 3560.650787,4166.876528 3544.205034,4137.795655 3539.333430,4140.625129 3535.104269,4143.395523 3550.777727,4172.089844 3552.698694,4171.013244 3558.280205,4181.092917 3519.701415,4200.391556 3528.803802,4219.138921"/>
    <poly id="148457887" type="building.yes" color="255,230,230" fill="1" layer="-1.00" shape="2754.193261,5186.207265 2751.058108,5180.641920 2741.090005,5162.229613 2738.767414,5157.939370 2726.567498,5164.481177 2722.071285,5156.157783 2714.954740,5143.007790 2714.227341,5141.667073 2780.027959,5106.338295 2807.625629,5157.351950 2754.193261,5186.207265"/>
    <poly id="150365209" type="amenity.hospital" color="237,199,199" fill="1" layer="-1.00" shape="3120.166480,3759.624078 3052.623690,3637.533648 3203.764698,3557.273563 3217.303934,3582.378351 3245.448143,3566.631033 3272.929595,3551.242448 3274.017633,3550.633437 3281.344872,3546.533519 3312.691259,3605.797218 3321.473948,3622.386707 3325.109250,3629.257082 3329.017384,3641.681764 3320.257039,3646.297785 3252.164535,3687.102039 3230.290083,3699.658493 3121.271231,3759.026343 3120.166480,3759.624078"/>
    <poly id="150368085" type="amenity.hospital" color="237,199,199" fill="1" layer="-1.00" shape="3330.865571,4154.482297 3202.333055,3914.937287 3255.109515,3888.220030 3245.778976,3870.835950 3242.423535,3864.590604 3357.955892,3798.439548 3368.073004,3844.576660 3378.032991,3939.495185 3383.310585,3969.088890 3403.964177,4049.255617 3421.656273,4090.230143 3423.119335,4095.809494 3422.287220,4101.250954 3420.046834,4105.809952 3417.169735,4108.496320 3330.865571,4154.482297"/>
    <poly id="156943046" type="building.apartments" color="255,230,230" fill="1" layer="-1.00" shape="2698.269572,4485.873123 2695.702868,4485.132780 2695.012519,4484.958232 2694.044599,4484.691643 2692.573619,4489.937017 2687.321889,4488.466064 2687.040003,4489.473094 2686.881208,4490.059668 2686.124228,4492.715412 2684.474790,4492.241073 2678.028096,4490.423189 2676.336444,4489.948361 2669.898190,4488.130582 2668.214980,4487.655854 2661.768279,4485.837984 2660.034413,4485.362671 2660.765155,4482.784335 2660.958748,4482.109346 2661.214144,4481.201928 2655.852908,4479.707523 2657.350093,4474.384731 2656.390742,4474.107145 2655.809886,4473.956075 2653.175763,4473.203863 2653.651238,4471.521843 2655.456792,4465.092408 2655.949282,4463.399484 2657.763283,4456.970147 2658.238630,4455.299229 2660.018865,4448.869501 2660.477200,4447.209487 2663.052491,4447.938815 2663.683876,4448.101574 2664.651801,4448.368159 2666.114198,4443.133782 2671.374535,4444.593716 2671.638892,4443.641994 2671.814957,4443.022313 2672.554665,4440.399674 2704.915485,4423.267160 2714.530867,4440.887014 2729.944227,4468.921492 2698.269572,4485.873123"/>
    <poly id="156948911" type="leisure.playground" color="207,245,201" fill="1" layer="-2.00" shape="3334.241482,4313.461461 3316.647016,4322.637093 3308.799891,4307.712742 3326.394381,4298.537091 3334.241482,4313.461461"/>
    <poly id="156948913" type="leisure.pitch" color="207,245,201" fill="1" layer="-2.00" shape="3308.931926,4347.693458 3259.584468,4373.873021 3237.554648,4332.681657 3286.902423,4306.490845 3308.931926,4347.693458"/>
    <poly id="156948913#1" type="sport.baseball" color="79,230,125" fill="1" layer="-2.00" shape="3308.931926,4347.693458 3259.584468,4373.873021 3237.554648,4332.681657 3286.902423,4306.490845 3308.931926,4347.693458"/>
    <poly id="158404390" type="building.yes" color="255,230,230" fill="1" layer="-1.00" shape="2167.096318,3859.734035 2160.239652,3863.385270 2155.456186,3865.928002 2149.270895,3869.209516 2144.410936,3871.795781 2155.024790,3891.613485 2177.710131,3879.551772 2174.056514,3872.726180 2171.080758,3867.162958 2167.096318,3859.734035"/>
    <poly id="158404390#1" type="tourism.yes" color="207,245,201" fill="1" layer="-2.00" shape="2167.096318,3859.734035 2160.239652,3863.385270 2155.456186,3865.928002 2149.270895,3869.209516 2144.410936,3871.795781 2155.024790,3891.613485 2177.710131,3879.551772 2174.056514,3872.726180 2171.080758,3867.162958 2167.096318,3859.734035"/>
    <poly id="158413988" type="building.yes" color="255,230,230" fill="1" layer="-1.00" shape="2078.190172,3138.299733 2074.646902,3140.179584 2058.306812,3148.873073 2047.719384,3154.502042 2026.281407,3165.879120 2015.677013,3171.519041 1999.345507,3180.212756 1995.810721,3182.092740 1961.507820,3200.360696 1959.103903,3195.703432 1958.277775,3194.106316 1961.607654,3161.593079 1965.355843,3125.021266 1968.898964,3123.152464 1985.263565,3114.525675 1995.884392,3108.930307 2017.303547,3097.730557 2027.891286,3092.079342 2044.214701,3083.374490 2047.775518,3081.439317 2049.642959,3085.013519 2057.199962,3099.067093 2068.765447,3120.705229 2076.296787,3134.780734 2078.190172,3138.299733"/>
    <poly id="158858760" type="building.apartments" color="255,230,230" fill="1" layer="-1.00" shape="2309.644202,4306.922196 2303.040143,4294.589043 2297.534652,4297.523014 2292.889409,4288.854028 2306.508602,4281.606247 2311.153835,4290.275241 2319.725667,4306.228260 2323.965904,4314.137632 2313.677310,4319.603115 2308.180596,4309.358867 2307.486294,4308.062987 2309.644202,4306.922196"/>
    <poly id="159866208" type="building.yes" color="255,230,230" fill="1" layer="-1.00" shape="2141.081869,4606.211829 2134.550216,4594.190517 2136.851405,4593.062433 2119.345514,4561.074926 2088.297190,4578.058545 2092.728438,4612.615261 2097.258381,4612.245607 2098.196320,4619.506156 2124.058722,4615.829814 2134.860731,4609.726075 2141.081869,4606.211829"/>
    <poly id="159871578" type="building.yes" color="255,230,230" fill="1" layer="-1.00" shape="2198.603434,4547.279005 2218.597057,4536.363219 2223.244916,4533.830073 2225.156762,4532.786337 2235.888617,4526.926180 2238.820095,4525.328011 2237.951590,4523.763672 2226.687977,4503.283266 2224.122595,4504.619214 2193.515997,4521.329950 2186.564616,4525.190996 2188.472660,4528.865642 2193.136926,4537.346049 2197.611106,4545.468994 2198.603434,4547.279005"/>
    <poly id="159886327" type="building.apartments" color="255,230,230" fill="1" layer="-1.00" shape="2198.326841,4691.193652 2180.179455,4700.931754 2184.817134,4709.511773 2193.100926,4724.795205 2194.688508,4727.700105 2199.658966,4725.004137 2205.818896,4721.666875 2205.996951,4721.602317 2212.793768,4717.950450 2208.428438,4709.917565 2202.897737,4699.706299 2198.326841,4691.193652"/>
    <poly id="159895893" type="building.yes" color="255,230,230" fill="1" layer="-1.00" shape="3119.629257,4810.954882 3143.497830,4797.977359 3115.220530,4745.944222 3091.301968,4758.854642 3092.045836,4760.228895 3094.211583,4764.206556 3101.080160,4776.876624 3105.711016,4785.224024 3116.915943,4806.149257 3119.629257,4810.954882"/>
    <poly id="159899676" type="building.yes" color="255,230,230" fill="1" layer="-1.00" shape="3105.910144,4996.835106 3077.636505,4944.535672 3189.827427,4883.894532 3218.092093,4936.194300 3105.910144,4996.835106"/>
    <poly id="159899677" type="building.yes" color="255,230,230" fill="1" layer="-1.00" shape="3207.504922,4851.582518 3202.142846,4841.516763 3205.320278,4839.833028 3204.394863,4838.101370 3203.630279,4838.503223 3189.286744,4811.623698 3189.966390,4811.265261 3189.057593,4809.556004 3185.939636,4811.207134 3180.659977,4801.308893 3212.485133,4784.472101 3234.157987,4773.001326 3235.058467,4774.699389 3237.545595,4779.346984 3257.597975,4816.951481 3260.085074,4821.599085 3260.977229,4823.285951 3239.295903,4834.767650 3207.504922,4851.582518"/>