<?xml version="1.0" encoding="UTF-8"?>

<!-- generated on 11/19/18 11:31:29 by Eclipse SUMO duarouter Version 1.0.1
<configuration xmlns:xsi="http://www.w3.org/2001/XMLSchema-instance" xsi:noNamespaceSchemaLocation="http://sumo.dlr.de/xsd/duarouterConfiguration.xsd">

    <input>
        <net-file value="osm.net.xml"/>
        <route-files value="osm.pedestrian.trips.xml"/>
    </input>

    <output>
        <output-file value="osm.pedestrian.rou.xml"/>
        <alternatives-output value="osm.pedestrian.rou.alt.xml"/>
    </output>

    <time>
        <begin value="0"/>
        <end value="3600.0"/>
    </time>

    <report>
        <no-warnings value="true"/>
        <ignore-errors value="true"/>
        <no-step-log value="true"/>
    </report>

</configuration>
-->

<routes xmlns:xsi="http://www.w3.org/2001/XMLSchema-instance" xsi:noNamespaceSchemaLocation="http://sumo.dlr.de/xsd/routes_file.xsd">
    <vType id="ped_pedestrian" vClass="pedestrian"/>
    <person id="ped0" type="ped_pedestrian" depart="0.00">
        <walk edges="516631883#3 516631883#4 46139048#5 46139048#6 46139048#7 46139048#8 569451558#1 451954046#0 451954046#1 5673127#0 5673127#1 452339696#1 452339696#2 414894542#1 414894542#2 612743236#0 394355323#1 612743237#1 195745925#1 195745925#0 5672971#1 394355333#0 496945925 394355329#1 394355329#0 394355330 496945074#0 496945074#1 394355331 385101420#1 -414750044#0 -5671717#1 -5671717#0 -420890077#1 -420890077#0 414744944 -524361790 5670703#0 496944690#1"/>
    </person>
    <person id="ped1" type="ped_pedestrian" depart="0.34">
        <walk edges="420788269#1 420788264#1 538083112#1 623678435 413727896#1 413727897#1 413727897#0 5672973#15 5673205#0 5673205#1 37890351#0 37890351#1 5670121 46160386 5669815#0 5671008 536917118#2 536917118#1 536917118#0 536917119 480682395 370169932#2 370169932#0 40956096 39772365#0 496944693#4 555830749#1 438366913#3 -378099316#1"/>
    </person>
    <person id="ped2" type="ped_pedestrian" depart="0.69">
        <walk edges="22909798#4 495520695#1 495520671#1 495520673#1 22909814#4 495520684#1 495520684#0 495520688#1 22909869#3 495520702 440268566#1 194923792#1 194923792#0 46334602#1 46334602#0 350726031 458106348 465098295 46609036#1 46609036#0 611258687#1 611258687#0 195743555#1 195743555#0 525033953 420522443#1 420522443#0 433144114#1 433144114#0 433144112#0 492148706#1 433144119#0"/>
    </person>
    <person id="ped3" type="ped_pedestrian" depart="1.03">
        <walk edges="22914179#3 465098290 420598339 -384178812#2 259744859 396444294#6 396444294#5 396444294#4 396444294#2 396444294#1 350726028#9 350726028#8 350726028#7 350726028#6 350726028#5 350726028#3 350726028#2 36806658 420901925 5670275 500182596 46490537#2 396444295#4 532308033#3 532308035#1 -570149661#0 -570149663#1 -570149662#1 532308025#0 532308030#1 532308030#0 532308031#1 532308031#0 532304646#1 46481755#1"/>
    </person>
    <person id="ped4" type="ped_pedestrian" depart="1.37">
        <walk edges="561832676 5672434#0 -5670924#0 -5670924#3 -5670924#4 420598402#1 68668537#1 5672710#1 5672710#2 5672710#3 5672710#4 418995537#0 546665387#3 546665387#2 546665389 430404700#0 430404702#2 430404702#1 430404702#0 430404706#1 418994850 22897633#2 430610042#4 430610563 430610039#0 430610039#1 430610569 430610568#4 430610568#3 420598230#8 194923808#1 194923808#2 194923808#5 33804436#1 33804436#2 610906277 610906273#2 430380401#3 430380401#2 385105829#3 430380405#4 430380405#5 162041587#0 -194923765"/>
    </person>
    <person id="ped5" type="ped_pedestrian" depart="1.72">
        <walk edges="556311124#3 556311124#2 46116435#1 46116435#0 -480972178 256902829 342785522 497497196#1 497497196#0 497484751#0"/>
    </person>
    <person id="ped6" type="ped_pedestrian" depart="2.06">
        <walk edges="614901579#0 614901579#1 614901579#2 5673532#0 -46165815#2 614901575#0 614901568#1 614901568#0 614573616#0 614573616#1 44225576#5 44225576#4 44225576#3 44225576#2 44225576#1 44225576#0 5672377#3 5672377#2 5672377#1 5672377#0 5670668 46154327#3 46154327#2 46154327#1 46154327#0 375034871#8"/>
    </person>
    <person id="ped7" type="ped_pedestrian" depart="2.40">
        <walk edges="458166896#1 458166896#2 458166896#3 458166896#4 458166896#6 458166896#9 458166896#12 458166896#15 458166896#17 584971399 5671472 630828554 109325979#1 481842395#2 109325990 5670581#0 5670770#0 -5671774#10 -5671774#8 616745175#1"/>
    </person>
    <person id="ped8" type="ped_pedestrian" depart="2.75">
        <walk edges="5670275 420901925 36806658 36806659#0 36806659#1 36806659#2 36806659#3 226041020 226041019 46581216#1 46581216#2 46581216#3 46581216#4 46581216#5 167923358#0 491162341#2 22898643 543717203#0 543717203#1 34080174#1 474864230#5 474864231#4"/>
    </person>
    <person id="ped9" type="ped_pedestrian" depart="3.09">
        <walk edges="5671529#3 5671529#2 5670909 488376503#5 488376503#6 488376503#7 354393963#0 430380400#6 354393796#0 354393796#1 33804436#5 33804436#4 33804436#3 33804436#2 354393794#1 354393794#0 385105827#0 385105827#1 385105823#0 194926839#2 194926839#1 -489019753#2 -420519634#1 -438390724 420598373 428569356 428568015#0 428567977#0 297995671 297995669#5 297995674#0 297995674#27 297995674#23 22986671#2 22986671#1 22986671#0 22986690 297995662#5 297995662#4 297995648#1 297995672#15 428567982 428568003 587061854 464515614#3 464515614#2"/>
    </person>
    <person id="ped10" type="ped_pedestrian" depart="3.43">
        <walk edges="497505042#0 497505037#0 421832644#2 421832644#5 497484747#1 497484758 497484735#1 497484746#3 46139046#2 46139046#1 46139046#0 439933931#1 5669922#2 5669922#1 5669922#0 524817693#1 46332301#3 46332301#2 46332301#1 46332301#0 630828596 5672410 414751576#4 414751576#3 -414751576#1 -414751576#0 -438901945 -414751458#1 -414751458#0 -42786502#5 -42786502#4"/>
    </person>
    <person id="ped12" type="ped_pedestrian" depart="4.12">
        <walk edges="385668565#1 385668565#0 447001270 464683341#0 464683341#1 420514148#1 196117042#4 196117042#3 196117042#2 428568018 297995652#1 297995652#0 22986670#6 22986670#1 297995648#0 297995648#1 297995648#2 428568013#2 530038749 428567976#4 22898643"/>
    </person>
    <person id="ped13" type="ped_pedestrian" depart="4.46">
        <walk edges="317204177#1 317204181#0 317204180#0 317204178 317204184#1 613508238#0 613508236#1 39662323#1 39662323#0 -560788342#2 -560788342#1 5670925 -46154291 -195745911#0 -195745911#1 -451954047#1 -439842794 46154282 450807242#1 531511297#1 531511297#0 454031475 531511303#2 531511303#1 394355318#1 612741277#3"/>
    </person>
    <person id="ped14" type="ped_pedestrian" depart="4.81">
        <walk edges="495537439#0 226193939#2 495537444#1 495537438 495537442#1 -46431825#1 -46431825#0 -439842799 46171876#11 46171876#12 46171876#13 46171876#14 46171876#15 46171876#16 5670942#3 5670454 159657620 439933935#0 46610729 439933935#2 452492203 439933934 471524646 471523502#1 471525498"/>
    </person>
    <person id="ped15" type="ped_pedestrian" depart="5.15">
        <walk edges="630828585#0 630828586#2 630828586#1 396444294#11 396444294#9 396444294#8 396444294#7 259744859 -384178812#1 -384178812#0 -116672333#3 116672333#2 116672333#1 5669945#0 495520681#0"/>
    </person>
    <person id="ped16" type="ped_pedestrian" depart="5.49">
        <walk edges="5670787#3 5670787#4 5670912 5671529#11 5671529#10 5671529#9 5671529#8 5670907 5670756#7 5670756#8 5670756#9 5670756#10 430610064#1 430610066#3 529741033#2 529741033#1 -194923764#6 -440681436#1 -440681436#0 -477151468#2 477151468#1 430840794 -25167053 5668983#1 194923763#1 -25167210#10 -25167210#9 -25167210#8 -25167210#7 -25167210#6 -25167210#3 -25167210#1 -25167210#0 -397839400#8 -397839400#7 -397839400#6 -397839400#4 -397839400#3 -397839400#2 -397839400#1 -46349386#3 -46349386#2 533394975#0 533394975#1 430829685#1 430829685#0 533399353#4"/>
    </person>
    <person id="ped17" type="ped_pedestrian" depart="5.84">
        <walk edges="22986689 22986671#1 22986671#2 297995674#23 297995674#27 297995674#0 297995669#5 297995671 428567977#0 428567978#2 428567978#1 -526571477#1 -5671620#1 -465101198#1 -420598415 -420598407 -384178812#2"/>
    </person>
    <person id="ped18" type="ped_pedestrian" depart="6.18">
        <walk edges="495920778#1 420788311#1 495908507 495908519 495920771#0 525707999#1 525707999#2 525707999#3 525707999#4 525707999#5 -5672148#1 420788266#1 420788266#2 5669125 420788235#1 420788288#1 5672146#2 495933384#1 495933400#1 495933400#2 5673205#1 37890351#0 37890351#1 5670121 46160386 5669815#0 5671008 -447018423#2 524610937#0 5669870#1 5669870#0 226193929#2 226193929#3 226193929#4 226193930#0 226193930#1 226193930#2 226193930#3 226193930#4 226193930#5 5671197#0 5671197#1 5671197#2 5671197#3 5671197#6 40879216#1"/>
    </person>
    <person id="ped19" type="ped_pedestrian" depart="6.52">
        <walk edges="576185022#0 576185022#1 546665387#1 546665389 430404700#0 430404702#2 430404702#1 430404702#0 430404706#1 418994850 22897633#2 430610042#4 430610563 430610039#0 430610063#1 430610041#0"/>
    </person>
    <person id="ped20" type="ped_pedestrian" depart="6.87">
        <walk edges="46171878#4 466956279 420810622#1 5671354#1 5671354#2 556311124#3 556311124#2 556311124#1 5670440#2 5670440#1 495535795#1 495535801#0 495535806#0 22927362#1 22927362#0 313639564 313639560#3"/>
    </person>
    <person id="ped21" type="ped_pedestrian" depart="7.21">
        <walk edges="464803258#2 68325065#7 620939495#1 497002544#1 380098432#0 380098432#1 380098432#2 380098432#3 380098432#4 380098432#5 380098432#6 380098432#7 380098432#8 380098432#9 380098432#10 380098432#11 420872180#1 420872180#4 420872180#5 420872180#6 420872180#7 420872180#8 420872176#0 420598230#1 420598230#2 420598230#3 420598230#5 420598230#8 194923808#1 194923808#2 194923808#5 33804436#1 33804436#2 610906277 610906273#2 430380401#3 385105830#0 385105830#1 385105830#2 385105830#3 385105822#0 385105822#1 5673367#1 5673367#0"/>
    </person>
    <person id="ped22" type="ped_pedestrian" depart="7.55">
        <walk edges="68674961#6 68674961#5 226041001#2 226041001#3 226041001#4 226041001#5 438385431#4"/>
    </person>
    <person id="ped23" type="ped_pedestrian" depart="7.90">
        <walk edges="68668559#2 516630658#1 516631934 619523375 315174427#5 524394634#3 524394634#4 524394634#5 46139047 221687790#0 221687790#1 619523361#2 619523361#1 195743130#5 195743130#2 619523364#0 610647388 457937084#4 457937084#1 634986991 -5671083#1 -5671083#0 118400728 5671111#7 5671111#8 439842761#2 439842757 165777951#0 165777951#1 -276670360 467523297#1 467523297#0 630828589#0 630828589#1 630828589#2 5672178#1 5672178#3 439933928#0 5669962#4 453242694"/>
    </person>
    <person id="ped24" type="ped_pedestrian" depart="8.24">
        <walk edges="616665663#0 616656199#3 420352250#5 321993366#0 46332295#3 46332295#2 46332295#1 46332295#0 46139036#4 46139036#1 412174929#4 412174929#3 480972178 195743179#3 5671354#2 5671354#3 5671354#4 495535799#2 617496975 495535782#2 495535789#1 495535789#0 33119428 22909323#42 22909323#43 537426851#0 537426851#1 537426848#0 226040985#1 584971513 5671457#1 5671457#4 5671457#5"/>
    </person>
    <person id="ped25" type="ped_pedestrian" depart="8.58">
        <walk edges="471524646 439933934 452492203 439933935#2 46610729 46608946#8 46608946#7 46608946#6 46608946#5 46608946#4 46608946#3 46608946#2 46608946#1 5669953#7 420598323#0 420598323#1 420598323#2 420598323#3 420598323#4 467222812#1 467222812#2 467222812#3 467222812#4 467222812#5 433124996#1 157012386#1 157012386#2 157012386#3 157012386#4 157012386#5 157012386#6 157012386#7 157012386#8 157012386#9 157012386#10 157012386#11 157012386#12 157012386#13 157012386#14"/>
    </person>
    <person id="ped26" type="ped_pedestrian" depart="8.93">
        <walk edges="533399372#1 533399355 533399367#1 5671756#1 5671343#2 557625465 613493214#0 -46154281#2 317355663 -125525165#2 453374927#0 453374927#1 453374930"/>
    </person>
    <person id="ped27" type="ped_pedestrian" depart="9.27">
        <walk edges="-106877222#0 5669860#3 492148701#0 492148701#1 492148701#3 492148701#5 492148701#6 438375431 440681437#0 440681437#1 440681437#2 440681437#3 440681437#4 440681437#5 5672646#0 5672646#1 5672646#2 5672646#3 5672646#4 5672646#5 477151468#0 477151468#1 -477151468#2 -440681436#0 -440681436#1 -438381568#1 -438381568#2 -438381568#5 -438381568#6 -46211851#1 -46211851#2 -46211851#3 -46211851#4 32937066#0 -528792682#0 364569000#2"/>
    </person>
    <person id="ped28" type="ped_pedestrian" depart="9.61">
        <walk edges="-25167210#1 -25167210#0 -397839400#8 -397839400#7 -397839400#6 -397839400#4 -397839400#3 -397839400#2 -397839400#1 194923766#1 458387408 422247695#0 374925021 422247702#1 422247702#0 533400195#0 458387409#1 420351725#0 420351725#1 421825696#0 456313635 199927849#1 464803287#2 464803276#2 464803273#1 68325065#1 68325065#4 68325065#7 620939495#1 610648155#0 610648151#0"/>
    </person>
    <person id="ped29" type="ped_pedestrian" depart="9.96">
        <walk edges="5672402#0 5672402#1 451954041#0 451954041#1 -560788343 -46154291 -195745911#0 -195745911#1 -451954047#1 -439842794 46154282 450807242#1 19725512#1 -420355081 165777195#3 5671339#2 5671339#3 5671339#4 5671339#5 5671339#6 68668539#1 68668539#0 125436141#4 412180553#9 412180553#8 412180553#7 412180553#6 412180553#5 497504182#1 497503643#1 497502832 613510054#0"/>
    </person>
    <person id="ped30" type="ped_pedestrian" depart="10.30">
        <walk edges="-5669837#0 -615986458#0 5672625#1 439933947 420358896#0 420358896#1 420358896#2 196117006#1 438389785#0 438389785#1 5671095#1 5671095#5 5669962#9 5669962#12 5669962#14 479642036#0 25166891#1 25166891#4 194923763#0 194923763#1 -194923762#0 502760350#0 430868636"/>
    </person>
    <person id="ped31" type="ped_pedestrian" depart="10.64">
        <walk edges="531511297#1 450807242#1 46154282 -439842794 -451954047#1 -195745911#1 -195745911#0 -46154291 5670925 -560788342#1 -560788342#2 39662323#0 39662323#1 347311224#1 347311224#2 347311224#3 357946354#0 357946354#1 110854073#5 110854073#6"/>
    </person>
    <person id="ped32" type="ped_pedestrian" depart="10.99">
        <walk edges="430829635#8 430823733#3 430823733#2 430823733#1 430823733#0 533399353#2 430829674#1 481962896#1 481962896#2 5669860#1 5669860#2 5669860#3 492148700#1 492148700#2 185934187 420354146#1 463035843 420354145 40337681 446864090 488272734#0 488272734#1 485165666 524395517#0 524395517#1 524395517#2 524395517#4 420354141 5669892#0 5669892#1 5669892#2 5669892#3 5669892#4 5669892#5 5669892#6 46139038#0 46139038#1"/>
    </person>
    <person id="ped34" type="ped_pedestrian" depart="11.67">
        <walk edges="68668546#0 539024459#6 539024459#5 539024459#4 539024459#3 539024459#2 539024459#1 539024459#0 497505040#1 497505026#0 497484754 465252753#5 465252751#2 465252753#3 465252753#2 465252750#0 497739135#1 497739136 497739139#1 495547049#0"/>
    </person>
    <person id="ped35" type="ped_pedestrian" depart="12.02">
        <walk edges="422248703#1 32972072#4 374925016#3 374925016#2 374925016#1 32935551#3 32935551#4 194923766#1 458387408 422247695#0 374925021 464800361#0 464800361#1 422247700#0 440681437#2"/>
    </person>
    <person id="ped36" type="ped_pedestrian" depart="12.36">
        <walk edges="108235826 132500959#1 614901584#3 614901584#2 614901584#1 614901584#0 614901561#1 614901561#0 614901575#0 -46165815#2 -46165815#1 -46165815#0 -584971510#1 5671458#0 5671458#1 196117045#1 226040985#1 537426848#0 537426851#1 537426851#0 22909323#43 22909323#42 33119428 495535789#0 495535789#1 495535782#2 617496975 495535799#2 495535793#2 495535804 495535795#1 495535801#0 495535787#2 495535796 495535800#2 22927411#2 22927411#3 22927411#4 22927411#5 22927411#6"/>
    </person>
    <person id="ped37" type="ped_pedestrian" depart="12.70">
        <walk edges="-481403099#0 196117090#2 196117090#3 196117090#4 196117090#5 196117090#6 196117090#7 -465101198#1 5672965#4 5672965#3 5672965#2 5672965#1 483704511#1"/>
    </person>
    <person id="ped38" type="ped_pedestrian" depart="13.05">
        <walk edges="22986678#0 297995660#1 297995662#5 297995662#4 297995648#1 297995648#2 297995648#3 530038714#2 5672273#0 5672273#1 167923358#0 46581216#5 46581216#4 46581216#3 46581216#2 46581216#1 46581216#0 35027226#2 35027226#1 35027226#0 5671678 439933932#1 496983397#1 496983396#0 5673561#0 420904657#0 500717384 500717392 500717404#1 500717404#0 542257982#0 569345547#1"/>
    </person>
    <person id="ped39" type="ped_pedestrian" depart="13.39">
        <walk edges="25199883#5 157012386#9 157012386#10 157012386#11 157012386#12 420358898#2 420358891 420358895 420358890 5672321#3 5672321#1 5672321#0 584850103 68668539#3 68668539#2 68668539#1 68668539#0 125436141#4 125436141#3 125436141#2 125436141#1 125436141#0 421825694#0 5671172#2 5671172#1 5671172#0 40956098#2 40956098#1 -46116314#0 -46116314#1 496162974#3"/>
    </person>
    <person id="ped40" type="ped_pedestrian" depart="13.73">
        <walk edges="-5672621#18 479642035#1 479642035#2 479642035#3 5672604#0 5672604#1 5672604#3 610292625#1 385867413#0 385867413#1 5669962#8 5669962#6 5669962#4 5669962#3 5669962#2 421825692#5"/>
    </person>
    <person id="ped41" type="ped_pedestrian" depart="14.08">
        <walk edges="620640667#3 5670652#2 -451954047#1 -439842794 46154282 450807242#1 19725512#1 -420355081 165777195#3 165777195#2 165777195#1 165777195#0 112116234#1 112116234#0 112116236 40709921#3 40709921#2 420352241#0 181375404#10 181375404#7 181375404#4 181375404#1 420352243#1 420352246#1 496980200#1 181546837#19 181546837#16 181546837#15 181546837#12 181546837#9 181546837#6 181546837#5 433398367#1 5671603#1 5671603#2 420530114#1 -5672922#0"/>
    </person>
    <person id="ped42" type="ped_pedestrian" depart="14.42">
        <walk edges="420788269#1 420788264#1 538083112#1 623678435 413727896#1 420788294#0 420788270 495933380 495933372#1 495933372#0 420788235#2 420788235#1 420788235#0 495908520#2 420888146#1 -413212450#2 -413212450#1 -413212450#0 -421831216#1 -421831216#0 -320783775 320783774#0"/>
    </person>
    <person id="ped43" type="ped_pedestrian" depart="14.76">
        <walk edges="426651389#2 222299276#6 222299276#4 222299276#3 222299276#1 222299276#0 438384743 194923807#9 194923807#6 194923807#3 194923807#2 194923807#1 385105823#0 385105827#1 385105827#0 354393794#0 354393794#1 33804436#2 33804436#3 33804436#4 33804436#5 354393796#1 354393796#0 430380400#6 354393963#0 488376503#7 488376503#6 354393797#0 354393797#1 5671529#1"/>
    </person>
    <person id="ped44" type="ped_pedestrian" depart="15.11">
        <walk edges="46139039#3 46139039#2 46139039#1 46139039#0 46139038#4 46139038#3 46139038#2 46139038#1 46139038#0 5671322#2 530633045 530633042#0 530633042#1 530633042#2 530632148#1 420358890 420358895 420358891 181375404#1 181375404#4 181375404#7 181375404#10 420352241#0 524387550#1 524387550#2 195743157 634986991 452319507#4 452319507#1 68325065#7 68325065#4 68325065#1 464803273#1 464803276#2 464803287#2 199927849#1 456313635 421825696#0 420351725#1 420351725#0 -440681437#0 -440681437#1 -440681437#2 -440681437#3 -440681437#4"/>
    </person>
    <person id="ped46" type="ped_pedestrian" depart="15.79">
        <walk edges="616658935 616658943#1 496980200#1 420352246#1 420352243#1 181375404#1 181375404#4 181375404#7 181375404#10 420352241#0 524387550#1 524387550#2 195743157 634986991 452319507#4 452319507#1 610647283#1"/>
    </person>
    <person id="ped47" type="ped_pedestrian" depart="16.14">
        <walk edges="5670924#0 5670924#3 5670924#4 420522695#0 420522695#1 420522695#2 195743164#0 195743164#1 630828594#0 438389786#0 438388090#1 68668526#0 68668526#1 194923764#1"/>
    </person>
    <person id="ped48" type="ped_pedestrian" depart="16.48">
        <walk edges="413054286#1 413054286#0 483707770 222299254 587038051 222299277 5672377#4 5672377#3 5672377#2 5672377#1 5672377#0 460624365 588157329#7 588157329#6 588157329#1 495933385#0 495933400#3 5673205#1 -222299275#12 -5669745#0 -5669745#1 -5669745#2 -5669745#3 -5669745#4 -46160406#0 -46160406#1"/>
    </person>
    <person id="ped49" type="ped_pedestrian" depart="16.82">
        <walk edges="391062192#1 496162979 496162960#1 40956098#1 40956098#2 5671172#0 5671172#1 414747619#1 414747619#0 414747621 46116332#1 46116332#0 222299242#1 222299242#0 196117014#1 5673424#2 5673424#1 5673424#0 452339695 525698215#1 620646463#1"/>
    </person>
    <person id="ped50" type="ped_pedestrian" depart="17.17">
        <walk edges="315174038#3 456323427#1 224671408 620641104#8 620640655#1 5672299#1 5672299#0 195745920 446864091#6 446864091#5 516426650#0 533820530#1"/>
    </person>
    <person id="ped51" type="ped_pedestrian" depart="17.51">
        <walk edges="614901579#1 614901578#0 -46165815#0 46165810#0 46165810#1 -46160106#2 46160106#1 46165812#1 46165812#0 46171880 46171887 439933951 68668562#3 68668562#2 68668562#1 68668562#0 46171883#1 46171883#0 46171878#5 46171878#4 46171878#3 46171878#2 46171878#0 613510054#2 613510054#1 613510054#0 497502087#1 412174929#4 46139036#1 46139036#4 68668546#0 68668546#1 68668546#2 68668546#3"/>
    </person>
    <person id="ped52" type="ped_pedestrian" depart="17.86">
        <walk edges="616658932 616658928#1 -5672138#1 -5672138#2 -481047237#0 5672040#8 352705251#1 431040810#5 352329972#6 352329972#5 352329972#4 197582876#5 197582876#4 197582876#3 352325850#2 352324954#4 352705241#5 352705256#0 5671743#4 5672896#1 5672896#2 5672896#3 5672896#4 5672896#5 5672896#6 5672896#7 558008153#0 362824463#1 385105193#9 385105193#8 385105193#7 385105193#6 385105193#5 385105193#4 385105193#3 385105193#2 385105193#1 385105193#0 385105208#2 385105208#1 385105208#0 109294062 464683316#2"/>
    </person>
    <person id="ped53" type="ped_pedestrian" depart="18.20">
        <walk edges="459175383#2 458166897#12 458166897#11 458166897#10 458166897#9 458166897#8 458166897#7 458166897#6 -36271338#1 -36271338#3 36271338#4 36271338#6 420901672 -226041003#0 -226041003#1 -226041003#2 368938761#5 368938761#2 368938761#1 368938762#0 420872177 391634111 391634110 391634112 -381480256#5 -381480256#6 34769546#0 527855913#1"/>
    </person>
    <person id="ped54" type="ped_pedestrian" depart="18.54">
        <walk edges="465252754#0 465252753#2 465252753#3 465252751#2 465252753#5 497484754 497484747#0 497484747#1 497484758 497484735#1 497484746#3 46139046#2 46139046#1 46139046#0 439933931#1 5669922#2 5669922#1 5669922#0 524817693#1 46332301#3 46332301#2 46332301#1 46332301#0 630828596 5672410 414751576#4 414751576#3 -414751576#1 -414751576#0 -438901945 -414751458#1 -414751458#0 -42786502#5 -42786502#4 -42786502#3 5670832#0 496945074#1 386527151 385101425#1 385101425#0 496175217#1"/>
    </person>
    <person id="ped55" type="ped_pedestrian" depart="18.89">
        <walk edges="25564580 -25564571#1 46116183#0 533472943#1 496947106#1 40879217 40879219#0"/>
    </person>
    <person id="ped56" type="ped_pedestrian" depart="19.23">
        <walk edges="496165306#1 5670366#0 5670366#1 5670366#2 5670366#3 5670366#4 5670366#5 5670366#6 5670366#7 5670366#8 5670366#10 5670366#12 5670366#16 157012386#13 420358898#3 420358898#4 5672625#1 5672625#0 464522037#5 464522037#4 352705238#4 352705238#3 352705238#0 431040797#1 352705250#7 352705250#6 352705250#5 352325849#0 352324956#2"/>
    </person>
    <person id="ped57" type="ped_pedestrian" depart="19.57">
        <walk edges="35984335 458177131#1 458177131#0 496990647#0 496990647#1 496990647#2 420356168 458166897#6 -36271338#1 -36271338#3 36271338#4 36271338#6 420901672 -226041003#0 -226041003#1 -226041003#2 368938761#5 368938761#2 368938761#1 368938762#0 420872177 144001605#3 527874595#2"/>
    </person>
    <person id="ped58" type="ped_pedestrian" depart="19.92">
        <walk edges="-496978218 38605248 54689817#0 54689817#1 5669870#1 524610937#0 447018423#2 -536917118#4 -536917118#5 388281630#1 5671214 176498778#1 176498778#0 430408018#1 430408018#0"/>
    </person>
    <person id="ped59" type="ped_pedestrian" depart="20.26">
        <walk edges="75359816#1 46332300#0 46332300#1 195743179#0 195743179#1 46332299#1 466956279 46171878#3 413054857#7 413054857#6 413054857#5 413054857#4 413054857#3 413054857#2 413054857#1 46139039#1 46139039#0 46139038#4 46139038#3 584850104#2 439842823 439842831#0 439842831#1 439842831#2 439842831#3 439842831#4 40709929#1 40709929#2 226041016#0 533820523#1 533820523#0 516632460 516631884#0 516631884#1 516631884#2 516631884#3 516631884#4 516631884#5 516631933 516630658#0 68668559#2"/>
    </person>
    <person id="ped60" type="ped_pedestrian" depart="20.60">
        <walk edges="-497497218#0 22927411#5 46139040#1 465252751#2 465252753#3 465252753#2 465252750#0 497739135#1 497739136 497739139#1 495547049#0 495547045 495547046#1 495547044 495537448#1 495537437#1 468414630#3 468414630#2 468414630#1 468414630#0 22909323#19 22909323#18 22909323#17 22909323#16 22909323#15 22909323#14 379634618 379634619 22909323#12 22909323#11 22909323#10 22909323#9 22909323#8 22909323#7 22909323#6 22909323#5 22909323#4 22909323#3 22909323#2"/>
    </person>
    <person id="ped61" type="ped_pedestrian" depart="20.95">
        <walk edges="5670514#2 5671603#2 244977411 433124984#1 612384377#0 -5669925#0 194923810#3 194923810#2 194923810#1 194923810#0 256902826#5 256902826#4 5670814#2 5670814#1 539024460#6 539024460#5 539024460#4 539024460#3 497505032#1"/>
    </person>
    <person id="ped62" type="ped_pedestrian" depart="21.29">
        <walk edges="495920771#0 525707999#1 525707999#2 525707999#3 525707999#4 525707999#5 -5672148#1 420788266#1 420788266#2 5669125 420788235#1 420788288#1 5672146#2 495933384#1 495933400#1 481010300#0 5672973#12 5672973#14 5672973#15 5672973#16 5671436#9 -222299275#10 -222299275#9 -222299275#8 -222299275#7 -222299275#6 -222299275#5 -222299275#4 -222299275#2 -222299275#1 46116326#3 455501322 455501328#1 420888147 496162955#3 498671777#4 226040990#3 356140737#1 46116314#1 496162958#0 496162960#1 496990369#1 194923776#3 194923776#2 194923776#1 194923776#0 -194923798#2"/>
    </person>
    <person id="ped63" type="ped_pedestrian" depart="21.63">
        <walk edges="5669892#1 5670092#9 5670092#8 5670092#6 5670092#4 5670092#0 157012386#15 -615986461 420358898#4 5672625#1 5672625#0 464522037#5 464522037#4 352705238#4 352705238#3 352705238#0 431040797#1 352329972#1 352705241#1 352705241#2 352324954#6"/>
    </person>
    <person id="ped64" type="ped_pedestrian" depart="21.98">
        <walk edges="118400726#15 5672184#4 5672184#5 467523297#1 467523297#0 630828589#0 630828589#1 630828589#2 5672178#1 5672178#3 439933928#0 439933928#2 439933928#4 5672176#0 5672176#1 547089938#0 195743164#0 -195743164#1 -5670254#0 -5670254#1 -5670254#2 -616745173 -616745176"/>
    </person>
    <person id="ped67" type="ped_pedestrian" depart="23.01">
        <walk edges="5670877#0 5673211 5672377#1 5672377#2 5672377#3 44225576#0 44225576#1 44225576#2 462421592 -413045905 46171884#1 46171884#0 643000849#1 413050335#0 196117059#1 614901576#1 5671713#1 -5671307#3"/>
    </person>
    <person id="ped68" type="ped_pedestrian" depart="23.35">
        <walk edges="524817694#3 256902831 194923798#2 194923798#1 414751576#7 414751576#6 414751576#5 414751576#4 414751576#3 414751576#1 414751576#0 222299242#1 222299242#0 165775306#0 612743238#1 612743238#0 612743237#1 394355323#1 612743236#0 414894542#2 414894542#1 452339696#2 452339696#1 5673127#1 5673127#0 451954046#1 451954046#0 569451558#1 46139048#8 46139048#7 46139048#6"/>
    </person>
    <person id="ped69" type="ped_pedestrian" depart="23.69">
        <walk edges="140812537 140812525#4 496944691#0 496944680#3 496944686#1 410308024 410308023#0 410308023#1 474024818 410308026 410308025 281853233#1 109330336#5 109330336#4 109330336#3 109330336#2 109330336#1 109330336#0 40956098#2 -46332303#0 -46332308#0 46332304 109458132"/>
    </person>
    <person id="ped70" type="ped_pedestrian" depart="24.04">
        <walk edges="352705253#3 352324951#4 352324951#3 352324951#2 352324951#1 352705250#6 197582876#5 352329972#4 431040810#2 431040813#0 5672040#9 481047237#0 5672138#2 5672138#1 321993366#0 46332295#3 46332295#2 46332295#1 46332295#0 46139036#4 46139036#1 412174929#4 497502087#1 613510054#0 613510054#1 613510054#2 46171878#0 46171878#2 46171878#3 466956279 46332299#1 195743179#1 195743179#0 68668553#1 68668553#0 124814435#4 5673441#1"/>
    </person>
    <person id="ped71" type="ped_pedestrian" depart="24.38">
        <walk edges="414750044#14 414750044#13 414750044#12 414750044#11 414750044#10 414750044#9 -414750044#8 -414750044#7 140812560#1 394355337 394355338#1 394355338#0 385101428 385101420#1 -414750044#0 -414747620#0 414750042#1 414750042#0 34213168#3 34213168#2 34213168#1 410308023#1 474024818 410308026 410308025 281853233#1 109330336#5 109330331#0 410302891#0 410302891#1 600222727#1 275016228#1 275016228#2 275016228#3 524816751 127690685 226041017#1 537420110#3 537420110#2 537420110#1 537422157 127690684#0 495547966 537426839 537426851#0 22909323#43 47796319#0"/>
    </person>
    <person id="ped72" type="ped_pedestrian" depart="24.72">
        <walk edges="157014135#1 194923808#2 194923808#1 420598230#8 420598230#5 420598230#3 420598230#2 420598230#1 420872176#0 420872180#8 420872180#7 420872180#6 420872180#5 420872180#4 420872180#1 380098432#11 380098432#10 380098432#9 380098432#8 380098432#7 380098432#6 380098432#5 380098432#4 380098432#3 380098432#2 380098432#1 380098432#0 497002544#1 610648152#0 610648149 610648156#2"/>
    </person>
    <person id="ped73" type="ped_pedestrian" depart="25.07">
        <walk edges="5671661#0 -25167210#7 -25167210#6 -25167210#3 -25167210#1 -25167210#0 -397839400#8 -397839400#7 -397839400#6 -397839400#4 -397839400#3 -397839400#2 -397839400#1 194923766#1 458387408 422247695#0 374925021 422247702#1 422247702#0 533400195#0 458387409#1 420351725#0 420351725#1 421825696#0 456313635 199927849#1 420351721#1 195745917#1 474054794#4 474054794#1 181546839#1 221687792#4 619523352#1 619516041#5"/>
    </person>