<?xml version="1.0" encoding="UTF-8"?>
<!-- generated on 2018-11-19 11:31:20.156310 by $Id$ via randomTrips.py
  options: 
-->
<routes xmlns:xsi="http://www.w3.org/2001/XMLSchema-instance" xsi:noNamespaceSchemaLocation="http://sumo.dlr.de/xsd/routes_file.xsd">
    <vType id="bus_bus" vClass="bus">
    </vType>
    <trip id="bus1" depart="0.91" departLane="best" from="226041021#1" to="195743182#3" type="bus_bus"/>
    <trip id="bus2" depart="1.81" departLane="best" from="542255948#0" to="488376503#1" type="bus_bus"/>
    <trip id="bus3" depart="2.72" departLane="best" from="5672415#2" to="-46348789" type="bus_bus"/>
    <trip id="bus4" depart="3.63" departLane="best" from="194923808#7" to="452339699#2" type="bus_bus"/>
    <trip id="bus5" depart="4.53" departLane="best" from="-25166891#4" to="188559800#4" type="bus_bus"/>
    <trip id="bus7" depart="6.35" departLane="best" from="194923812#3" to="46350695" type="bus_bus"/>
    <trip id="bus8" depart="7.25" departLane="best" from="5670633#2" to="-194923764#6" type="bus_bus"/>
    <trip id="bus9" depart="8.16" departLane="best" from="5670581#1" to="497746843#0" type="bus_bus"/>
    <trip id="bus10" depart="9.07" departLane="best" from="32936739#1" to="112116235#2" type="bus_bus"/>
    <trip id="bus11" depart="9.97" departLane="best" from="587355679" to="335935798#1" type="bus_bus"/>
    <trip id="bus13" depart="11.79" departLane="best" from="5671341#1" to="464683327#1" type="bus_bus"/>
    <trip id="bus14" depart="12.69" departLane="best" from="5670600" to="539024460#3" type="bus_bus"/>
    <trip id="bus15" depart="13.60" departLane="best" from="458180181#1" to="619277987#2" type="bus_bus"/>
    <trip id="bus16" depart="14.51" departLane="best" from="381474197#1" to="46160244#1" type="bus_bus"/>
    <trip id="bus18" depart="16.32" departLane="best" from="5671647#1" to="46332300#0" type="bus_bus"/>
    <trip id="bus19" depart="17.23" departLane="best" from="505317789#1" to="-38605247" type="bus_bus"/>
    <trip id="bus20" depart="18.13" departLane="best" from="195743197#1" to="22927462#5" type="bus_bus"/>
    <trip id="bus21" depart="19.04" departLane="best" from="-46201668#1" to="195743555#0" type="bus_bus"/>
    <trip id="bus23" depart="20.85" departLane="best" from="36806906#1" to="194923795#1" type="bus_bus"/>
    <trip id="bus24" depart="21.76" departLane="best" from="467222856#3" to="46469729#1" type="bus_bus"/>
    <trip id="bus25" depart="22.67" departLane="best" from="125525165#2" to="539024459#6" type="bus_bus"/>
    <trip id="bus26" depart="23.57" departLane="best" from="118400728" to="388281630#0" type="bus_bus"/>
    <trip id="bus27" depart="24.48" departLane="best" from="68668541#5" to="466956276#0" type="bus_bus"/>
    <trip id="bus28" depart="25.39" departLane="best" from="46154281#1" to="496978219" type="bus_bus"/>
    <trip id="bus29" depart="26.29" departLane="best" from="5671261#1" to="5670011#1" type="bus_bus"/>
    <trip id="bus30" depart="27.20" departLane="best" from="195743209" to="-25196678" type="bus_bus"/>
    <trip id="bus31" depart="28.11" departLane="best" from="25196678" to="226041016#0" type="bus_bus"/>
    <trip id="bus33" depart="29.92" departLane="best" from="5672118#0" to="256902829" type="bus_bus"/>
    <trip id="bus34" depart="30.83" departLane="best" from="474054794#4" to="412115641#0" type="bus_bus"/>
    <trip id="bus35" depart="31.73" departLane="best" from="5672973#10" to="420908128#1" type="bus_bus"/>
    <trip id="bus36" depart="32.64" departLane="best" from="226040997#4" to="221687790#1" type="bus_bus"/>
    <trip id="bus37" depart="33.55" departLane="best" from="46154330#3" to="226041001#4" type="bus_bus"/>
    <trip id="bus38" depart="34.46" departLane="best" from="46201677#1" to="5672578#0" type="bus_bus"/>
    <trip id="bus39" depart="35.36" departLane="best" from="39956203#5" to="194926854#0" type="bus_bus"/>
    <trip id="bus40" depart="36.27" departLane="best" from="95181768#0" to="456308944" type="bus_bus"/>
    <trip id="bus41" depart="37.18" departLane="best" from="-467222856#3" to="-397839400#3" type="bus_bus"/>
    <trip id="bus42" depart="38.08" departLane="best" from="-542096278#2" to="46581216#2" type="bus_bus"/>
    <trip id="bus43" depart="38.99" departLane="best" from="5670296#1" to="420499932#2" type="bus_bus"/>
    <trip id="bus44" depart="39.90" departLane="best" from="-439842799" to="388695705" type="bus_bus"/>
    <trip id="bus45" depart="40.80" departLane="best" from="68674968#1" to="460606347#1" type="bus_bus"/>
    <trip id="bus46" depart="41.71" departLane="best" from="619280607#0" to="5671620#1" type="bus_bus"/>
    <trip id="bus47" depart="42.62" departLane="best" from="-194926839#1" to="526839040#0" type="bus_bus"/>
    <trip id="bus48" depart="43.52" departLane="best" from="488376503#4" to="46139034#6" type="bus_bus"/>
    <trip id="bus49" depart="44.43" departLane="best" from="226041001#0" to="466956278#1" type="bus_bus"/>
    <trip id="bus50" depart="45.34" departLane="best" from="-556075521" to="420598415" type="bus_bus"/>
    <trip id="bus51" depart="46.24" departLane="best" from="420809419#4" to="569451559#1" type="bus_bus"/>
    <trip id="bus52" depart="47.15" departLane="best" from="5672093#1" to="226041003#0" type="bus_bus"/>
    <trip id="bus55" depart="49.87" departLane="best" from="464516471#0" to="110854073#1" type="bus_bus"/>
    <trip id="bus56" depart="50.78" departLane="best" from="5669829#1" to="46139039#2" type="bus_bus"/>
    <trip id="bus58" depart="52.59" departLane="best" from="-125525165#0" to="317400962#1" type="bus_bus"/>
    <trip id="bus59" depart="53.50" departLane="best" from="-226041016#0" to="5673210#0" type="bus_bus"/>
    <trip id="bus60" depart="54.40" departLane="best" from="5672146#1" to="5670897#7" type="bus_bus"/>
    <trip id="bus61" depart="55.31" departLane="best" from="239988110#1" to="-420356170#0" type="bus_bus"/>
    <trip id="bus63" depart="57.12" departLane="best" from="-46431825#0" to="439842837#3" type="bus_bus"/>
    <trip id="bus65" depart="58.94" departLane="best" from="5669882#1" to="-5672190#3" type="bus_bus"/>
    <trip id="bus66" depart="59.84" departLane="best" from="421825692#1" to="46154338#2" type="bus_bus"/>
    <trip id="bus67" depart="60.75" departLane="best" from="226040997#5" to="5672027#1" type="bus_bus"/>
    <trip id="bus68" depart="61.66" departLane="best" from="414750044#9" to="194923801#3" type="bus_bus"/>
    <trip id="bus69" depart="62.56" departLane="best" from="458180193#0" to="539024460#4" type="bus_bus"/>
    <trip id="bus72" depart="65.28" departLane="best" from="420514148#1" to="458166897#1" type="bus_bus"/>
    <trip id="bus73" depart="66.19" departLane="best" from="-5670924#3" to="195743196#1" type="bus_bus"/>
    <trip id="bus74" depart="67.10" departLane="best" from="32935111#1" to="46350694#0" type="bus_bus"/>
    <trip id="bus75" depart="68.00" departLane="best" from="195743227#2" to="194926856" type="bus_bus"/>
    <trip id="bus76" depart="68.91" departLane="best" from="-46139021" to="46608205#9" type="bus_bus"/>
    <trip id="bus77" depart="69.82" departLane="best" from="195743208#1" to="5672710#3" type="bus_bus"/>
    <trip id="bus78" depart="70.72" departLane="best" from="5671593" to="-440681437#4" type="bus_bus"/>
    <trip id="bus79" depart="71.63" departLane="best" from="195745911#1" to="481962592#3" type="bus_bus"/>
    <trip id="bus80" depart="72.54" departLane="best" from="194923800#2" to="-5672621#5" type="bus_bus"/>
    <trip id="bus81" depart="73.44" departLane="best" from="5673424#1" to="46201655#4" type="bus_bus"/>
    <trip id="bus82" depart="74.35" departLane="best" from="420904657#0" to="5670124#1" type="bus_bus"/>
    <trip id="bus84" depart="76.16" departLane="best" from="-481962592#0" to="420598323#1" type="bus_bus"/>
    <trip id="bus85" depart="77.07" departLane="best" from="414751458#1" to="421853810#1" type="bus_bus"/>
    <trip id="bus86" depart="77.98" departLane="best" from="536917118#8" to="483704512#9" type="bus_bus"/>
    <trip id="bus87" depart="78.88" departLane="best" from="68325062" to="-485056263#1" type="bus_bus"/>
    <trip id="bus88" depart="79.79" departLane="best" from="40709927" to="33804436#6" type="bus_bus"/>
    <trip id="bus90" depart="81.60" departLane="best" from="159657620" to="420888146#1" type="bus_bus"/>
    <trip id="bus93" depart="84.32" departLane="best" from="420598230#3" to="5671647#1" type="bus_bus"/>
    <trip id="bus94" depart="85.23" departLane="best" from="46139034#2" to="-413045905" type="bus_bus"/>
    <trip id="bus95" depart="86.14" departLane="best" from="95181768#5" to="5671061#0" type="bus_bus"/>
    <trip id="bus96" depart="87.04" departLane="best" from="616745175#4" to="5673127#1" type="bus_bus"/>
    <trip id="bus97" depart="87.95" departLane="best" from="5671354#0" to="125525165#2" type="bus_bus"/>
    <trip id="bus98" depart="88.86" departLane="best" from="433394647#0" to="194923805#1" type="bus_bus"/>
    <trip id="bus99" depart="89.76" departLane="best" from="40337681" to="-420519634#1" type="bus_bus"/>
    <trip id="bus100" depart="90.67" departLane="best" from="381477008#0" to="68325104#1" type="bus_bus"/>
    <trip id="bus101" depart="91.58" departLane="best" from="226040997#6" to="5670106#5" type="bus_bus"/>
    <trip id="bus102" depart="92.48" departLane="best" from="420809421" to="420512232" type="bus_bus"/>
    <trip id="bus103" depart="93.39" departLane="best" from="587355679" to="68674961#6" type="bus_bus"/>
    <trip id="bus104" depart="94.30" departLane="best" from="46139048#2" to="525729010#1" type="bus_bus"/>
    <trip id="bus106" depart="96.11" departLane="best" from="616745175#1" to="46334596#1" type="bus_bus"/>
    <trip id="bus107" depart="97.02" departLane="best" from="460606348#0" to="561084838#6" type="bus_bus"/>
    <trip id="bus108" depart="97.93" departLane="best" from="-421831216#0" to="46348767#2" type="bus_bus"/>
    <trip id="bus109" depart="98.83" departLane="best" from="439933947" to="5671402" type="bus_bus"/>
    <trip id="bus110" depart="99.74" departLane="best" from="110854073#4" to="587061854" type="bus_bus"/>
    <trip id="bus111" depart="100.65" departLane="best" from="-46201668#2" to="157964812#1" type="bus_bus"/>
    <trip id="bus112" depart="101.55" departLane="best" from="195743554#4" to="-5671197#2" type="bus_bus"/>
    <trip id="bus113" depart="102.46" departLane="best" from="5672409#1" to="221687788#2" type="bus_bus"/>
    <trip id="bus114" depart="103.37" departLane="best" from="46334605#6" to="46492638" type="bus_bus"/>
    <trip id="bus115" depart="104.27" departLane="best" from="414669905" to="46348767#0" type="bus_bus"/>
    <trip id="bus116" depart="105.18" departLane="best" from="455501322" to="5673410#0" type="bus_bus"/>
    <trip id="bus117" depart="106.09" departLane="best" from="194923761#2" to="525038147#1" type="bus_bus"/>
    <trip id="bus118" depart="106.99" departLane="best" from="195745917#1" to="412115641#1" type="bus_bus"/>
    <trip id="bus119" depart="107.90" departLane="best" from="480682397" to="239988110#4" type="bus_bus"/>
    <trip id="bus120" depart="108.81" departLane="best" from="25198317#1" to="5669322#2" type="bus_bus"/>
    <trip id="bus121" depart="109.71" departLane="best" from="-46154330#4" to="420904660#1" type="bus_bus"/>
    <trip id="bus122" depart="110.62" departLane="best" from="95181768#14" to="68674968#1" type="bus_bus"/>
    <trip id="bus123" depart="111.53" departLane="best" from="-46154337#2" to="194923804#0" type="bus_bus"/>
    <trip id="bus124" depart="112.43" departLane="best" from="226040997#6" to="5673323#2" type="bus_bus"/>
    <trip id="bus125" depart="113.34" departLane="best" from="5672159#3" to="5672146#1" type="bus_bus"/>
    <trip id="bus126" depart="114.25" departLane="best" from="36806896" to="118400726#13" type="bus_bus"/>
    <trip id="bus127" depart="115.15" departLane="best" from="5671008" to="511699179" type="bus_bus"/>
    <trip id="bus128" depart="116.06" departLane="best" from="464543615#2" to="68668537#1" type="bus_bus"/>
    <trip id="bus129" depart="116.97" departLane="best" from="468414632#1" to="-194923773#2" type="bus_bus"/>
    <trip id="bus130" depart="117.87" departLane="best" from="5670736#0" to="239988110#1" type="bus_bus"/>
    <trip id="bus131" depart="118.78" departLane="best" from="479642039#3" to="5673591#0" type="bus_bus"/>
    <trip id="bus132" depart="119.69" departLane="best" from="-5672621#3" to="-5670402#2" type="bus_bus"/>
    <trip id="bus133" depart="120.59" departLane="best" from="-529713036#1" to="46160365#2" type="bus_bus"/>
    <trip id="bus134" depart="121.50" departLane="best" from="226041008#0" to="464683336" type="bus_bus"/>
    <trip id="bus135" depart="122.41" departLane="best" from="524817694#1" to="194923768#2" type="bus_bus"/>
    <trip id="bus136" depart="123.31" departLane="best" from="46607937#1" to="226041004#0" type="bus_bus"/>
    <trip id="bus137" depart="124.22" departLane="best" from="438366913#1" to="5672710#2" type="bus_bus"/>
    <trip id="bus139" depart="126.03" departLane="best" from="414751458#1" to="226193933#3" type="bus_bus"/>
    <trip id="bus141" depart="127.85" departLane="best" from="46608946#2" to="226041000#4" type="bus_bus"/>
    <trip id="bus142" depart="128.75" departLane="best" from="54369822#0" to="46160225#1" type="bus_bus"/>
    <trip id="bus143" depart="129.66" departLane="best" from="420351725#1" to="-194926839#1" type="bus_bus"/>
    <trip id="bus144" depart="130.57" departLane="best" from="-46160404#9" to="5672168#1" type="bus_bus"/>
    <trip id="bus145" depart="131.47" departLane="best" from="5672681#6" to="46154297#1" type="bus_bus"/>
    <trip id="bus146" depart="132.38" departLane="best" from="5671061#0" to="46334605#5" type="bus_bus"/>
    <trip id="bus147" depart="133.29" departLane="best" from="-591772210#0" to="-5672183" type="bus_bus"/>
    <trip id="bus148" depart="134.19" departLane="best" from="24263967#3" to="5672607#1" type="bus_bus"/>
    <trip id="bus149" depart="135.10" departLane="best" from="5670402#0" to="5671620#1" type="bus_bus"/>
    <trip id="bus150" depart="136.01" departLane="best" from="5672621#12" to="194923795#5" type="bus_bus"/>
    <trip id="bus152" depart="137.82" departLane="best" from="5670092#11" to="5672184#0" type="bus_bus"/>
    <trip id="bus153" depart="138.73" departLane="best" from="410302891#0" to="465098285" type="bus_bus"/>
    <trip id="bus154" depart="139.63" departLane="best" from="-68668559#5" to="5673210#5" type="bus_bus"/>
    <trip id="bus155" depart="140.54" departLane="best" from="5671668#0" to="630828554" type="bus_bus"/>
    <trip id="bus156" depart="141.45" departLane="best" from="5670652#1" to="5672155#0" type="bus_bus"/>
    <trip id="bus158" depart="143.26" departLane="best" from="31984136" to="5673309#1" type="bus_bus"/>
    <trip id="bus159" depart="144.17" departLane="best" from="5670532#1" to="5671663#3" type="bus_bus"/>
    <trip id="bus160" depart="145.07" departLane="best" from="5670652#1" to="226041007#2" type="bus_bus"/>
    <trip id="bus161" depart="145.98" departLane="best" from="5670193#1" to="-529713036#6" type="bus_bus"/>
    <trip id="bus162" depart="146.89" departLane="best" from="5671973#1" to="5671584#1" type="bus_bus"/>
    <trip id="bus163" depart="147.79" departLane="best" from="194926854#1" to="5670719#6" type="bus_bus"/>
    <trip id="bus164" depart="148.70" departLane="best" from="420872184" to="25167210#1" type="bus_bus"/>
    <trip id="bus165" depart="149.61" departLane="best" from="5670366#5" to="195743228#1" type="bus_bus"/>
    <trip id="bus166" depart="150.51" departLane="best" from="275016228#2" to="5671668#0" type="bus_bus"/>
    <trip id="bus167" depart="151.42" departLane="best" from="612743236#1" to="22897633#8" type="bus_bus"/>
    <trip id="bus168" depart="152.33" departLane="best" from="46610726#2" to="413050334#7" type="bus_bus"/>
    <trip id="bus169" depart="153.23" departLane="best" from="640327300#0" to="46139034#0" type="bus_bus"/>
    <trip id="bus170" depart="154.14" departLane="best" from="5673594#0" to="-5670402#1" type="bus_bus"/>
    <trip id="bus172" depart="155.95" departLane="best" from="597821267#0" to="226041005#5" type="bus_bus"/>
    <trip id="bus173" depart="156.86" departLane="best" from="-533394975#3" to="420598407" type="bus_bus"/>
    <trip id="bus174" depart="157.77" departLane="best" from="536917118#5" to="256902826#1" type="bus_bus"/>
    <trip id="bus175" depart="158.67" departLane="best" from="46432187#1" to="458106345#1" type="bus_bus"/>
    <trip id="bus176" depart="159.58" departLane="best" from="38605247" to="46332295#2" type="bus_bus"/>
    <trip id="bus177" depart="160.49" departLane="best" from="222299238#1" to="521358284" type="bus_bus"/>
    <trip id="bus178" depart="161.40" departLane="best" from="-125525171" to="5673102#5" type="bus_bus"/>
    <trip id="bus179" depart="162.30" departLane="best" from="458180187#2" to="525768550" type="bus_bus"/>
    <trip id="bus180" depart="163.21" departLane="best" from="543902513#0" to="483236728#5" type="bus_bus"/>
    <trip id="bus181" depart="164.12" departLane="best" from="356140743#0" to="-440681436#1" type="bus_bus"/>
    <trip id="bus182" depart="165.02" departLane="best" from="479642040#3" to="32935551#4" type="bus_bus"/>
    <trip id="bus183" depart="165.93" departLane="best" from="25167210#7" to="5671341#1" type="bus_bus"/>
    <trip id="bus184" depart="166.84" departLane="best" from="525698215#0" to="24264070#0" type="bus_bus"/>
    <trip id="bus186" depart="168.65" departLane="best" from="5673619#1" to="488376503#4" type="bus_bus"/>
    <trip id="bus187" depart="169.56" departLane="best" from="5672681#0" to="46490537#2" type="bus_bus"/>
    <trip id="bus189" depart="171.37" departLane="best" from="-116672333#3" to="22927373#1" type="bus_bus"/>
    <trip id="bus190" depart="172.28" departLane="best" from="420354364#0" to="46334598#3" type="bus_bus"/>
    <trip id="bus192" depart="174.09" departLane="best" from="420530113#1" to="194923805#1" type="bus_bus"/>
    <trip id="bus193" depart="175.00" departLane="best" from="420904660#1" to="5672621#5" type="bus_bus"/>
    <trip id="bus194" depart="175.90" departLane="best" from="-46350695" to="458166895#1" type="bus_bus"/>
    <trip id="bus195" depart="176.81" departLane="best" from="46581216#3" to="33117932#0" type="bus_bus"/>
    <trip id="bus196" depart="177.72" departLane="best" from="5670756#5" to="5669221" type="bus_bus"/>
    <trip id="bus197" depart="178.62" departLane="best" from="481962592#0" to="195743196#1" type="bus_bus"/>
    <trip id="bus199" depart="180.44" departLane="best" from="196117090#1" to="438367286#1" type="bus_bus"/>
    <trip id="bus200" depart="181.34" departLane="best" from="5671359#0" to="-454031476#0" type="bus_bus"/>
    <trip id="bus201" depart="182.25" departLane="best" from="413054850#2" to="46608205#11" type="bus_bus"/>
    <trip id="bus202" depart="183.16" departLane="best" from="166038501#0" to="497165756#4" type="bus_bus"/>
    <trip id="bus203" depart="184.06" departLane="best" from="438901427#1" to="19726366" type="bus_bus"/>
    <trip id="bus204" depart="184.97" departLane="best" from="474635904" to="-194923762#2" type="bus_bus"/>
    <trip id="bus205" depart="185.88" departLane="best" from="5669221" to="5669938#4" type="bus_bus"/>
    <trip id="bus206" depart="186.78" departLane="best" from="-528792682#0" to="420522049#6" type="bus_bus"/>
    <trip id="bus207" depart="187.69" departLane="best" from="127691874#2" to="584971531#3" type="bus_bus"/>
    <trip id="bus208" depart="188.60" departLane="best" from="452339695" to="-410302891#0" type="bus_bus"/>
    <trip id="bus209" depart="189.50" departLane="best" from="216959250#1" to="5671343#1" type="bus_bus"/>
    <trip id="bus210" depart="190.41" departLane="best" from="420809442" to="5670510#1" type="bus_bus"/>
    <trip id="bus211" depart="191.32" departLane="best" from="480112480#0" to="68668539#2" type="bus_bus"/>
    <trip id="bus212" depart="192.22" departLane="best" from="46334663" to="569345515#1" type="bus_bus"/>
    <trip id="bus213" depart="193.13" departLane="best" from="5672415#0" to="46481095#6" type="bus_bus"/>
    <trip id="bus214" depart="194.04" departLane="best" from="525656847" to="452339697" type="bus_bus"/>
    <trip id="bus215" depart="194.94" departLane="best" from="5670897#8" to="46154330#5" type="bus_bus"/>
    <trip id="bus216" depart="195.85" departLane="best" from="5672578#0" to="54689818" type="bus_bus"/>
    <trip id="bus217" depart="196.76" departLane="best" from="420908134" to="226040994#0" type="bus_bus"/>
    <trip id="bus218" depart="197.66" departLane="best" from="199927850#1" to="46629376#0" type="bus_bus"/>
    <trip id="bus219" depart="198.57" departLane="best" from="5669882#1" to="458177128#0" type="bus_bus"/>
    <trip id="bus220" depart="199.48" departLane="best" from="46492017" to="226193930#2" type="bus_bus"/>
    <trip id="bus221" depart="200.38" departLane="best" from="-46165819#1" to="22916319#1" type="bus_bus"/>
    <trip id="bus222" depart="201.29" departLane="best" from="226041007#3" to="276670360" type="bus_bus"/>
    <trip id="bus224" depart="203.10" departLane="best" from="195743264#3" to="496992363#3" type="bus_bus"/>
    <trip id="bus225" depart="204.01" departLane="best" from="507432922" to="-428569356" type="bus_bus"/>
    <trip id="bus226" depart="204.92" departLane="best" from="412115641#3" to="46139048#6" type="bus_bus"/>
    <trip id="bus227" depart="205.82" departLane="best" from="413054857#6" to="194923781#0" type="bus_bus"/>
    <trip id="bus228" depart="206.73" departLane="best" from="414747619#0" to="5672706#2" type="bus_bus"/>
    <trip id="bus229" depart="207.64" departLane="best" from="46201668#1" to="497165756#0" type="bus_bus"/>
    <trip id="bus230" depart="208.54" departLane="best" from="5671440#0" to="5669875#1" type="bus_bus"/>
    <trip id="bus231" depart="209.45" departLane="best" from="381565180#2" to="-194923763#1" type="bus_bus"/>
    <trip id="bus233" depart="211.26" departLane="best" from="5671404#1" to="569451558#1" type="bus_bus"/>
    <trip id="bus234" depart="212.17" departLane="best" from="413749473" to="561084838#0" type="bus_bus"/>
    <trip id="bus235" depart="213.08" departLane="best" from="46116390#3" to="464683323#1" type="bus_bus"/>
    <trip id="bus236" depart="213.98" departLane="best" from="194923812#3" to="194926854#1" type="bus_bus"/>
    <trip id="bus237" depart="214.89" departLane="best" from="420494981#0" to="-250267912#0" type="bus_bus"/>
    <trip id="bus238" depart="215.80" departLane="best" from="32934351#0" to="489019754#0" type="bus_bus"/>
    <trip id="bus239" depart="216.70" departLane="best" from="40709929#2" to="125480075" type="bus_bus"/>
    <trip id="bus240" depart="217.61" departLane="best" from="420895282#3" to="-5672183" type="bus_bus"/>
    <trip id="bus242" depart="219.42" departLane="best" from="396444294#6" to="46171878#4" type="bus_bus"/>
    <trip id="bus243" depart="220.33" departLane="best" from="-25166922#1" to="467222828#1" type="bus_bus"/>
    <trip id="bus244" depart="221.24" departLane="best" from="-5672646#3" to="421825693#0" type="bus_bus"/>
    <trip id="bus245" depart="222.14" departLane="best" from="-414751576#3" to="388240124#9" type="bus_bus"/>
    <trip id="bus246" depart="223.05" departLane="best" from="194923793" to="32922458" type="bus_bus"/>
    <trip id="bus247" depart="223.96" departLane="best" from="5669745#4" to="388240124#9" type="bus_bus"/>
    <trip id="bus248" depart="224.87" departLane="best" from="5669356" to="5670897#8" type="bus_bus"/>
    <trip id="bus249" depart="225.77" departLane="best" from="221687793#1" to="-46201651#0" type="bus_bus"/>
    <trip id="bus250" depart="226.68" departLane="best" from="-226040986#1" to="46139039#2" type="bus_bus"/>
    <trip id="bus251" depart="227.59" departLane="best" from="95181774#1" to="350726028#3" type="bus_bus"/>
    <trip id="bus254" depart="230.31" departLane="best" from="571651963" to="188559800#7" type="bus_bus"/>
    <trip id="bus255" depart="231.21" departLane="best" from="-226193904#0" to="110542345" type="bus_bus"/>
    <trip id="bus256" depart="232.12" departLane="best" from="-5671717#1" to="481962896#1" type="bus_bus"/>
    <trip id="bus257" depart="233.03" departLane="best" from="46154338#5" to="194926840#0" type="bus_bus"/>
    <trip id="bus258" depart="233.93" departLane="best" from="496993765#1" to="5669892#4" type="bus_bus"/>
    <trip id="bus260" depart="235.75" departLane="best" from="5670770#0" to="591772210#2" type="bus_bus"/>
    <trip id="bus262" depart="237.56" departLane="best" from="25163419#7" to="488376503#4" type="bus_bus"/>
    <trip id="bus263" depart="238.47" departLane="best" from="588157330" to="412174929#4" type="bus_bus"/>
    <trip id="bus264" depart="239.37" departLane="best" from="524394634#4" to="-46154281#1" type="bus_bus"/>
    <trip id="bus265" depart="240.28" departLane="best" from="496980201#1" to="46581216#1" type="bus_bus"/>
    <trip id="bus266" depart="241.19" departLane="best" from="-511699183#2" to="5669962#3" type="bus_bus"/>
    <trip id="bus268" depart="243.00" departLane="best" from="-5670924#3" to="643444515#0" type="bus_bus"/>
    <trip id="bus269" depart="243.91" departLane="best" from="5670106#3" to="348488662#0" type="bus_bus"/>
    <trip id="bus270" depart="244.81" departLane="best" from="420352246#1" to="384178813#1" type="bus_bus"/>
    <trip id="bus271" depart="245.72" departLane="best" from="440681437#5" to="34080174#7" type="bus_bus"/>
    <trip id="bus272" depart="246.63" departLane="best" from="5671359#0" to="5670787#3" type="bus_bus"/>
    <trip id="bus273" depart="247.53" departLane="best" from="46608205#3" to="5670877#0" type="bus_bus"/>
    <trip id="bus274" depart="248.44" departLane="best" from="511699181" to="420772654#0" type="bus_bus"/>
    <trip id="bus275" depart="249.35" departLane="best" from="541345307#0" to="597821266#11" type="bus_bus"/>
    <trip id="bus276" depart="250.25" departLane="best" from="226041005#5" to="5670594#2" type="bus_bus"/>
    <trip id="bus277" depart="251.16" departLane="best" from="458180187#0" to="439842823" type="bus_bus"/>
    <trip id="bus278" depart="252.07" departLane="best" from="420494981#0" to="540356239#3" type="bus_bus"/>
    <trip id="bus280" depart="253.88" departLane="best" from="5670920" to="-46348787#1" type="bus_bus"/>
    <trip id="bus281" depart="254.79" departLane="best" from="5672168#1" to="19725512#1" type="bus_bus"/>
    <trip id="bus282" depart="255.69" departLane="best" from="420890077#1" to="46469733#0" type="bus_bus"/>
    <trip id="bus285" depart="258.41" departLane="best" from="194923794#2" to="5670402#3" type="bus_bus"/>
    <trip id="bus286" depart="259.32" departLane="best" from="32936739#2" to="5672149#1" type="bus_bus"/>
    <trip id="bus289" depart="262.04" departLane="best" from="-46350695" to="526571477#2" type="bus_bus"/>
    <trip id="bus290" depart="262.95" departLane="best" from="438366913#1" to="5669669#4" type="bus_bus"/>
    <trip id="bus292" depart="264.76" departLane="best" from="438384692#0" to="5670275" type="bus_bus"/>
    <trip id="bus294" depart="266.57" departLane="best" from="496982787#2" to="25167210#9" type="bus_bus"/>
    <trip id="bus295" depart="267.48" departLane="best" from="46201649" to="438362423#0" type="bus_bus"/>
    <trip id="bus296" depart="268.39" departLane="best" from="458166896#9" to="420522050" type="bus_bus"/>
    <trip id="bus297" depart="269.29" departLane="best" from="556311124#7" to="32936385#0" type="bus_bus"/>
    <trip id="bus298" depart="270.20" departLane="best" from="500701825" to="226041025#2" type="bus_bus"/>
    <trip id="bus299" depart="271.11" departLane="best" from="221687790#1" to="-5671296#0" type="bus_bus"/>
    <trip id="bus300" depart="272.01" departLane="best" from="165775306#0" to="-5671197#0" type="bus_bus"/>
    <trip id="bus301" depart="272.92" departLane="best" from="458177133#1" to="5669806#2" type="bus_bus"/>
    <trip id="bus302" depart="273.83" departLane="best" from="157012386#15" to="194923810#2" type="bus_bus"/>
    <trip id="bus303" depart="274.73" departLane="best" from="433124968#0" to="533394975#3" type="bus_bus"/>
    <trip id="bus304" depart="275.64" departLane="best" from="630828589#2" to="458180186#0" type="bus_bus"/>
    <trip id="bus305" depart="276.55" departLane="best" from="226193933#2" to="-496982022#0" type="bus_bus"/>
    <trip id="bus306" depart="277.45" departLane="best" from="166038132" to="195743228#0" type="bus_bus"/>
    <trip id="bus307" depart="278.36" departLane="best" from="127693388#0" to="-195743554#4" type="bus_bus"/>
    <trip id="bus308" depart="279.27" departLane="best" from="458177128#0" to="226193930#1" type="bus_bus"/>
    <trip id="bus309" depart="280.17" departLane="best" from="630828556#1" to="46160365#3" type="bus_bus"/>
    <trip id="bus310" depart="281.08" departLane="best" from="496990647#0" to="-5672093#2" type="bus_bus"/>
    <trip id="bus311" depart="281.99" departLane="best" from="5671754#2" to="440681436#0" type="bus_bus"/>
    <trip id="bus312" depart="282.89" departLane="best" from="5672027#0" to="46211851#4" type="bus_bus"/>
    <trip id="bus313" depart="283.80" departLane="best" from="420901683#0" to="420809425#1" type="bus_bus"/>
    <trip id="bus314" depart="284.71" departLane="best" from="157012386#11" to="-413201428" type="bus_bus"/>
    <trip id="bus315" depart="285.61" departLane="best" from="5673626#2" to="438385431#1" type="bus_bus"/>
    <trip id="bus316" depart="286.52" departLane="best" from="5670792#0" to="413051876#2" type="bus_bus"/>
    <trip id="bus317" depart="287.43" departLane="best" from="-46160404#12" to="46608205#1" type="bus_bus"/>
    <trip id="bus318" depart="288.34" departLane="best" from="-420522695#0" to="-68668526#0" type="bus_bus"/>
    <trip id="bus319" depart="289.24" departLane="best" from="46154337#3" to="25166922#1" type="bus_bus"/>