<?xml version="1.0" encoding="UTF-8"?>

<!-- generated on 11/19/18 11:31:13 by Eclipse SUMO duarouter Version 1.0.1
<configuration xmlns:xsi="http://www.w3.org/2001/XMLSchema-instance" xsi:noNamespaceSchemaLocation="http://sumo.dlr.de/xsd/duarouterConfiguration.xsd">

    <input>
        <net-file value="osm.net.xml"/>
        <route-files value="osm.bus.trips.xml"/>
    </input>

    <output>
        <output-file value="osm.bus.rou.xml"/>
        <alternatives-output value="osm.bus.rou.alt.xml"/>
    </output>

    <time>
        <begin value="0"/>
        <end value="3600.0"/>
    </time>

    <report>
        <no-warnings value="true"/>
        <ignore-errors value="true"/>
        <no-step-log value="true"/>
    </report>

</configuration>
-->

<routes xmlns:xsi="http://www.w3.org/2001/XMLSchema-instance" xsi:noNamespaceSchemaLocation="http://sumo.dlr.de/xsd/routes_file.xsd">
    <vType id="bus_bus" vClass="bus"/>
    <vehicle id="bus1" type="bus_bus" depart="0.91" departLane="best">
        <route edges="226041021#1 496986803#9 496986803#10 46482537#1 273895450#0 273895450#1 525729010#1 525729010#2 5670197#2 542257008#0 542257008#1 542257009#0 542257009#1 542257009#2 542257009#4 542257009#5 483236728#0 195743182#2 195743182#3"/>
    </vehicle>
    <vehicle id="bus2" type="bus_bus" depart="1.81" departLane="best">
        <route edges="542255948#0 542255948#1 542255948#2 542255948#3 505537786 139919714#1 542256188#1 542256188#2 542256188#3 542256188#4 542256188#5 46481747#0 46481747#1 46481747#2 46522006 5673231 458166893#0 458166893#2 458166895#0 458166895#1 46469722 421852619#1 46334596#0 46334596#1 46334595#0 46334595#1 381480256#0 381480256#1 381480256#4 381480256#5 381480256#6 34769546#0 194926840#0 587038048 134485639 587038047-AddedOnRampEdge 587038047 33117933#1-AddedOnRampEdge 33117933#1 5669581 46201650#0 46201650#1 46201650#2 162041587#0 162041587#1 162041587#2 162041587#3 46201655#1 488376503#0 488376503#1"/>
    </vehicle>
    <vehicle id="bus3" type="bus_bus" depart="2.72" departLane="best">
        <route edges="5672415#2 380093631#2 54369822#0 194923807#6 194923807#9 438384743 222299276#0 226040994#0 226040994#1 5669221 33117933#1-AddedOnRampEdge 33117933#1 33117933#2 587355677 5671887 432550169 32936739#1 420884524 -420884506#0 -194923769#0 -481962592#5 -481962592#4 -481962592#3 -194923774#2 -194923774#1 -194923774#0 -194923773#3 -194923773#2 -46154281#2 -46154281#1 -46348789"/>
    </vehicle>
    <vehicle id="bus4" type="bus_bus" depart="3.63" departLane="best">
        <route edges="194923808#7 194923808#8 -420872201#0 -194926839#1 157014136#1 157014136#2 420598266 420598241 420598281 420598236 378363223 22897633#7 22897633#8 22897633#9 616745174#0 464683327#1 464683326#0 464683326#3 420598402#1 -5670924#4 -5670924#3 -5670924#0 195743341#0 195743341#1 195743341#2 195743341#3 195743341#4 195743341#5 195743341#6 439933929 68674966#0 24264070#0 24264070#1 157012398#0 157012398#1 157012398#2 157012398#4 157012398#5 157012387#1 157012387#2 157012387#3 439933948#0 433398367#1 452339699#1 452339699#2"/>
    </vehicle>
    <vehicle id="bus5" type="bus_bus" depart="4.53" departLane="best">
        <route edges="-25166891#4 -5672621#15 -5672621#12 -5672621#9 -5672621#6 -5672621#5 -5672621#4 -5672621#3 -5672621#2 -5672621#1 199927849#1 25198451#2 110542344 112116235#2 112116235#3 112116235#4 112116235#5 112116235#6 221687794#1 221687794#2 524395517#0 524395517#1 524395517#2 524395517#4 420354141 165777195#0 5670084#0 188559800#4"/>
    </vehicle>
    <vehicle id="bus7" type="bus_bus" depart="6.35" departLane="best">
        <route edges="194923812#3 127693388#0 127693388#1 350726031 5670451#0 5670451#1 5670451#2 496985713 474635899#0 474635904 196117032 5670044#0 5670044#1 5670044#2 5670044#3 5670044#4 5670044#5 5670044#6 492148702 492148703#0 492148703#1 467222812#1 467222812#2 467222812#3 467222812#4 467222812#5 433124996#1 157012386#1 157012386#2 157012386#3 157012386#4 157012386#5 157012386#6 157012386#7 157012386#8 157012386#9 157012386#10 157012386#11 157012386#12 157012386#13 157012386#14 157012386#15 5670092#0 181375404#7 181375404#10 420352241#0 524387550#1 524387550#2 195743178 457937084#1 457937084#4 457937084#5 181546839#1 474054794#1 474054794#4 -46201668#2 110854073#2 110854073#3 110854073#4 110854073#5 110854073#6 110854073#7 46350695"/>
    </vehicle>
    <vehicle id="bus8" type="bus_bus" depart="7.25" departLane="best">
        <route edges="5670633#2 5670532#1 112116235#0 357946354#1 110854073#5 110854073#6 110854073#7 492148701#3 492148701#5 492148701#6 438375431 440681437#0 440681437#1 440681437#2 440681437#3 440681437#4 440681437#5 5672646#0 5672646#1 5672646#2 5672646#3 5672646#4 5672646#5 477151468#0 477151468#1 477151468#2 440681436#0 440681436#1 -194923764#6"/>
    </vehicle>
    <vehicle id="bus9" type="bus_bus" depart="8.16" departLane="best">
        <route edges="5670581#1 5670673#0 5670673#1 5672211#0 464683329#2 464683329#3 464683328 464683317#0 464683327#1 464683326#0 464683326#3 420598402#1 -5670924#4 -5670924#3 -5670924#0 195743341#0 195743341#1 195743341#2 195743341#3 420522444 497746843#0"/>
    </vehicle>
    <vehicle id="bus10" type="bus_bus" depart="9.07" departLane="best">
        <route edges="32936739#1 420884524 -420884506#0 -194923769#0 -481962592#5 -481962592#4 -481962592#3 5672093#0 5672093#1 5672093#2 46349393#0 46349393#1 481962896#1 481962896#2 5669860#1 5669860#2 5669860#3 492148701#0 5670532#0 5670532#1 112116235#0 112116235#1 112116235#2"/>
    </vehicle>
    <vehicle id="bus11" type="bus_bus" depart="9.97" departLane="best">
        <route edges="587355679 528792682#0 528759347 32938997#1 -528755493#2 -528755493#1 -528755493#0 194923765 -420872199#1 -420872199#0 -68668521#5 -68668521#3 -68668521#2 -68668521#1 -68668521#0 -420872197#1 194923807#1 194923807#2 380099776 626226775#0 626226775#1 626226775#2 626226775#3 626226775#4 420872193#1 420872186 335935798#1"/>
    </vehicle>
    <vehicle id="bus13" type="bus_bus" depart="11.79" departLane="best">
        <route edges="5671341#1 5671341#2 569451558#1 451954047#1 127691872#0 127691872#1 127691872#2 -226041016#1 -226041016#0 -420354363 -40709929#1 454031476#0 5670079 -165777195#0 505772014 439842754 165777255 420355080 439842751 439842761#1 439842761#2 439842757 165777951#0 165777951#1 -276670360 -630828592#4 -630828592#3 467523298#1 630828589#0 630828589#1 630828589#2 5672178#1 5672178#3 439933928#0 439933928#2 439933928#4 5672176#0 5672176#1 547089938#0 420598310#1 68668537#1 68668537#4 464683327#1"/>
    </vehicle>
    <vehicle id="bus14" type="bus_bus" depart="12.69" departLane="best">
        <route edges="5670600 -384649121#1 -384649121#0 5670803 492489884 195743190 68668556 420512231#0 420512231#1 420512231#2 420598330#0 420598330#1 420598330#2 420598327 5670836#0 5670836#1 5670836#2 5670836#3 5670836#4 5670836#5 5670836#6 496993765#0 496993765#1 196117091#0 196117091#1 196117091#2 5669953#0 5669953#2 5669953#3 5669953#4 5669953#5 5669953#6 5669953#7 420598323#0 420598323#1 420598323#2 420598323#3 420598323#4 46610727#1 46610727#2 46610727#3 420530113#0 420530113#1 5673342#0 5673342#1 46139034#0 46139034#1 46139034#2 466956271 466956276#0 466956276#1 466956276#2 466956276#3 466956276#4 466956272#1 466956272#2 421832644#0 421832644#1 421832644#2 421832644#5 421832643#1 -438901427#3 -438901427#2 -438901427#1 539024460#0 539024460#2 539024460#3"/>
    </vehicle>
    <vehicle id="bus15" type="bus_bus" depart="13.60" departLane="best">
        <route edges="458180181#1 420902878#1 420902883#1 420902883#2 196117039 496990647#0 496990647#1 496990647#2 630828556#0 630828556#1 458177133#0 458177133#1 458177133#2 458177129 458166895#0 458166895#1 46469722 421852619#1 421852618#0 421852618#1 420872188#1 118400729#1 118400729#5 118400729#8 118400729#11 420872194#0 381474197#1 420872190 420872184 222299248#0 222299248#1 420872191 380096992#1 619277987#1 619277987#2"/>
    </vehicle>
    <vehicle id="bus16" type="bus_bus" depart="14.51" departLane="best">
        <route edges="381474197#1 420872190 420872184 222299248#0 222299248#1 420872191 420872193#0 420872193#1 420872186 420872181 335935799#0 335935799#1 157014136#1 157014136#2 420598266 420598241 420598281 420598236 378363223 420598294#0 420598294#1 420598234 420598238 420598256 420598262 420598248 118400726#0 118400726#2 118400726#5 118400726#9 118400726#11 118400726#13 118400726#14 118400726#15 118400726#16 118400726#17 118400726#18 349873701 118400728 5671083#0 5671083#1 195743157 -454963832#5 -454963832#4 -454963832#3 -454963832#2 -454963832#1 -454963832#0 420354141 165777195#0 165777195#1 165777195#2 165777195#3 420355081 464963297#0 414893144#1 496982789#1 496982789#2 420355082#1 165775306#0 222299242#0 222299242#1 -438901945 -414751458#1 -414751458#0 -42786502#5 -42786502#4 -42786502#3 -42786502#2 -42786502#1 -42786502#0 -5671717#1 -5671717#0 -420890077#1 -420890077#0 414744944 -524361790 -414743582#1 -414743582#0 414743429#0 46160244#1"/>
    </vehicle>
    <vehicle id="bus18" type="bus_bus" depart="16.32" departLane="best">
        <route edges="5671647#1 5673119#1 5673119#2 -414750044#15 -414750044#14 -414750044#13 -414750044#12 -414750044#11 -414750044#10 -414750044#9 -414750044#8 -414750044#7 5670058#1 5670058#2 5670058#3 414751458#0 414751458#1 438901945 414751576#0 414751576#1 414751576#3 414751576#4 5672410 630828596 46332301#0 46332301#1 46332301#2 46332301#3 46332301#4 46332301#5 195743179#1 195743179#2 5671354#2 556311124#4 556311124#5 46332300#0"/>
    </vehicle>
    <vehicle id="bus19" type="bus_bus" depart="17.23" departLane="best">
        <route edges="505317789#1 542258060 569345546 500717410 500717404#0 500717404#1 500717392 46481747#2 46522006 5673231 458166893#0 458166893#2 458166895#0 458166895#1 46469722 421852619#1 46334596#0 46334596#1 46334595#0 46334595#1 381480256#0 381480256#1 381480256#4 381480256#5 381480256#6 34769546#0 194926840#0 587038048 134485639 587038047-AddedOnRampEdge 587038047 33117933#1-AddedOnRampEdge 33117933#1 33117933#2 587355677 5671887 432550169 32936739#1 32936739#2 32936739#3 32936739#4 420890092 5669194 420890093 32922457 46116183#0 414744944 -524361790 194923778#0 194923778#1 438366913#0 438366913#1 438366913#2 438366913#3 525038147#0 525038147#1 496978219 496978218 38605247 -38605247"/>
    </vehicle>
    <vehicle id="bus20" type="bus_bus" depart="18.13" departLane="best">
        <route edges="195743197#1 195743197#2 438900013#1 438900013#2 420809440#0 420809440#1 195743228#0 195743228#1 421832645#0 421832645#1 222299274#0 222299274#1 222299274#2 195743229#0 195743226#1 516664210#1 516664206#0 413050334#1 413050334#3 413050334#4 22927486#1 22927462#4 22927462#5"/>
    </vehicle>
    <vehicle id="bus21" type="bus_bus" depart="19.04" departLane="best">
        <route edges="-46201668#1 46201668#1 46201668#2 68325065#1 5671111#1 5671111#2 5671111#4 5671111#5 5671111#6 5671111#7 5671111#8 439842761#2 439842757 165777951#0 165777951#1 -276670360 -630828592#4 -630828592#3 467523298#1 630828589#0 630828589#1 630828589#2 5672178#1 5673533#1 5671663#0 5671663#1 5671663#2 5671663#3 5668989 -492148705#0 420522443#0 420522443#1 525033953 195743555#0"/>
    </vehicle>
    <vehicle id="bus23" type="bus_bus" depart="20.85" departLane="best">
        <route edges="36806906#1 542257982#0 542257982#1 505317783 525729010#2 525729010#3 420901919 420901920#0 420901920#2 420901921 420901922 194926856 350726030#0 350726030#1 350726028#0 350726028#2 350726028#3 350726028#5 350726028#6 350726028#7 350726028#8 350726028#9 350726028#10 384178813#0 384178813#1 156994977#0 156994977#1 156994977#2 194923795#0 194923795#1"/>
    </vehicle>
    <vehicle id="bus24" type="bus_bus" depart="21.76" departLane="best">
        <route edges="467222856#3 -467222856#3 -467222856#2 5672871#0 5672871#1 5672871#2 5672871#3 5672871#4 181546837#19 496980200#1 420352246#1 420352243#1 420358898#2 420358898#3 420358898#4 439933947 420358896#0 420358896#1 420358896#2 196117006#1 438389785#0 438389785#1 561084838#0 561084838#3 561084838#4 561084838#6 561084838#8 496992369#0 5671774#0 5671774#2 5671774#4 5671774#6 5671774#7 5671774#8 5671774#9 5671774#11 5671774#14 5671774#17 489019754#0 221157083#0 388240124#0 388240124#3 388240124#6 388240124#9 388240124#12 388240124#15 388240124#18 388240124#21 587061869#0 587061869#2 554083353#0 554083353#2 587038101 458166897#0 458166897#1 483236728#6 483236728#7 483236728#8 483236728#9 483236728#10 420901683#0 46469729#1"/>
    </vehicle>
    <vehicle id="bus25" type="bus_bus" depart="22.67" departLane="best">
        <route edges="125525165#2 125525165#3 125525165#4 125525165#5 5669662#0 5669662#1 -194923773#3 -194923773#2 -439842820#2 -439842820#1 -439842827 -281455419#4 -281455419#3 -281455419#1 -281455419#0 -420354360#0 -420354364#0 -420354365#1 -46201679#4 -46201679#1 -420354362#0 -194923770#0 -68668559#8 -68668559#7 -68668559#6 -68668559#5 -68668559#4 -68668559#3 -68668559#2 -68668559#1 -68668559#0 -226041016#4 -226041016#3 -226041016#2 -226041016#1 -226041016#0 -420354363 -40709929#1 454031476#0 5670079 5670084#0 5670084#1 5670084#2 5670084#3 5670084#4 68668516 46348767#0 46348767#1 46348767#2 46348767#3 46348767#4 46348767#5 5671291#0 25199870#6 539024459#6"/>
    </vehicle>
    <vehicle id="bus26" type="bus_bus" depart="23.57" departLane="best">
        <route edges="118400728 5671083#0 5671083#1 195743157 -454963832#5 -454963832#4 -454963832#3 -454963832#2 -454963832#1 -454963832#0 420354141 165777195#0 165777195#1 165777195#2 165777195#3 420355081 464963297#0 414893144#1 496982789#1 496982789#2 420355082#1 165775306#0 222299242#0 222299242#1 -438901945 -414751458#1 -414751458#0 -42786502#5 -42786502#4 -42786502#3 -42786502#2 -42786502#1 -42786502#0 -5671717#1 -5671717#0 -420890077#1 -420890077#0 414744944 -524361790 194923778#0 194923778#1 438366913#0 438366913#1 438366913#2 438366913#3 525038147#0 525038147#1 46154330#1 370169932#0 370169932#2 480682395 536917119 536917118#0 536917118#1 536917118#2 5671008 388281630#0"/>
    </vehicle>
    <vehicle id="bus27" type="bus_bus" depart="24.48" departLane="best">
        <route edges="68668541#5 68668541#6 68668541#7 195743341#0 195743341#1 195743341#2 195743341#3 195743341#4 195743341#5 195743341#6 439933929 68674966#0 24264070#0 24264070#1 157012398#0 157012398#1 157012398#2 157012398#4 157012398#5 157012387#1 157012387#2 157012387#3 439933948#0 439933948#4 439933948#5 5670792#0 5670792#1 46139034#2 466956271 466956276#0"/>
    </vehicle>
    <vehicle id="bus28" type="bus_bus" depart="25.39" departLane="best">
        <route edges="46154281#1 -46154281#1 -46154281#0 5670709 263088941#0 -451954039#2 -451954039#1 -451954039#0 -451954042 -125525171 -414750044#15 -414750044#14 -414750044#13 -414750044#12 -414750044#11 -414750044#10 -414750044#9 -414750044#8 -414750044#7 -414750044#5 -414750044#4 -414750044#2 -414750044#1 -414750044#0 -5671717#1 -5671717#0 -420890077#1 -420890077#0 414744944 -524361790 194923778#0 194923778#1 438366913#0 438366913#1 438366913#2 438366913#3 525038147#0 525038147#1 496978219"/>
    </vehicle>
    <vehicle id="bus29" type="bus_bus" depart="26.29" departLane="best">
        <route edges="5671261#1 5671261#3 -194923791 -458106348 194923811 420598345 496986855 496993763 348477349 5672713#0 5670731#3 5670731#4 5670731#5 5670011#0 5670011#1"/>
    </vehicle>
    <vehicle id="bus30" type="bus_bus" depart="27.20" departLane="best">
        <route edges="195743209 195743345 -525729008#1 -167922076 35027229 616683717 500717410 500717404#0 500717404#1 500717392 46481747#2 46522006 5673231 458166893#0 458166893#2 458166895#0 458166895#1 46469722 421852619#1 46334596#0 46334596#1 46334595#0 46334595#1 381480256#0 381480256#1 381480256#4 381480256#5 381480256#6 34769546#0 194926840#0 587038048 134485639 587038047-AddedOnRampEdge 587038047 33117933#1-AddedOnRampEdge 33117933#1 33117933#2 587355677 5671887 32935868 46201667#0 452487048#1 32935551#1 32935551#2 32935551#3 32935551#4 194923766#1 458387408 458387409#0 458387409#1 420351725#0 420351725#1 421825696#0 456313635 199927849#1 25198451#2 110854073#4 110854073#5 -25196678"/>
    </vehicle>
    <vehicle id="bus31" type="bus_bus" depart="28.11" departLane="best">
        <route edges="25196678 110854073#6 5670633#2 5670633#3 492148700#2 185934187 420354146#1 463035843 420354145 -194923768#3 -194923768#2 -194923768#1 -68668559#8 -68668559#7 -68668559#6 -68668559#5 -68668559#4 -68668559#3 -68668559#2 -68668559#1 -68668559#0 -226041016#4 -226041016#3 -226041016#2 -226041016#1 -226041016#0 226041016#0"/>
    </vehicle>
    <vehicle id="bus33" type="bus_bus" depart="29.92" departLane="best">
        <route edges="5672118#0 5672118#2 5672118#3 458180193#1 458180193#2 458180189 458180187#0 458180187#1 458180187#2 196117039 496990647#0 496990647#1 496990647#2 630828556#0 630828556#1 458177133#0 458177133#1 458177133#2 458177129 518451322 46469731#0 46469731#1 68674968#4 68674965 573476359#1 464683344 464683341#0 464683341#1 464683339#0 464683339#1 464683339#2 464683319 464683336 525768550 464683329#0 464683329#1 464683329#2 464683329#3 464683328 464683317#0 464683327#1 464683326#0 464683326#3 420598402#1 421825692#1 421825692#2 421825692#3 421825692#4 421825692#5 421825692#6 421825692#7 464522037#0 464522037#1 464522037#2 464522037#3 464522037#4 464522037#5 464522037#6 464522037#7 421825693#0 420352249#1 496980201#1 351540632#0 351540632#1 46348767#3 46348767#4 46348767#5 5671291#0 5671291#1 5671291#2 256902825#0 256902825#1 256902825#2 421832644#0 421832644#1 421832644#2 421832644#5 421832643#1 485056260#0 485056260#1 485056260#2 342785522 256902829"/>
    </vehicle>
    <vehicle id="bus34" type="bus_bus" depart="30.83" departLane="best">
        <route edges="474054794#4 68325065#1 68325065#4 68325065#7 452319507#1 452319507#4 634986991 497769953#0 497769953#1 497769952 588293370#2 524387551#1 524387551#4 524387551#7 524387551#10 524388532#1 420352244#0 420352249#1 496980201#1 351540632#0 351540632#1 46348767#3 46348767#4 46348767#5 5671291#0 5671291#1 5671291#2 256902825#0 256902825#1 256902825#2 421832644#0 421832644#1 421832644#2 421832644#5 421832643#1 485056260#0 485056260#1 485056260#2 342785522 256902829 -480972178 46139042 95181773#1 412115641#0"/>
    </vehicle>
    <vehicle id="bus35" type="bus_bus" depart="31.73" departLane="best">
        <route edges="5672973#10 5672973#12 5672973#14 5672973#15 5672973#16 588157329#1 588157329#6 5670267#2 129834316#2 129834316#3 129834316#4 129834316#5 5672027#0 5672027#1 5672027#2 438363729#2 438363729#3 413052676#0 413052676#1 195743264#1 195743264#3 438900013#1 438900013#2 420809440#0 420809440#1 195743228#0 195743228#1 421832645#0 421832645#1 222299274#0 222299274#1 222299274#2 195743229#0 195743226#1 516664210#1 516664206#0 413050334#1 413050334#3 413050334#4 413050334#7 496982371 588157330 438370108 420809441 420809420#1 420809420#3 420809420#4 420809420#7 420809420#8 420809420#9 195743557#0 195743557#1 195743558#0 195743558#3 195743558#4 195743558#5 420522049#1 420522049#2 420522049#3 420522049#6 420522049#7 473884145 505776502 22903923#1 34625442#0 194923802#0 194923802#1 194923802#3 194923802#4 194923802#5 194923801#0 194923801#1 194923801#3 194923801#4 5669945#0 420908128#1"/>
    </vehicle>
    <vehicle id="bus36" type="bus_bus" depart="32.64" departLane="best">
        <route edges="226040997#4 226040997#5 226040997#6 439933942 226040994#0 226040994#1 5669221 33117933#1-AddedOnRampEdge 33117933#1 33117933#2 587355677 5671887 32935868 46201667#0 452487048#1 32935551#1 32935551#2 32935551#3 32935551#4 -46349386#3 -46349386#2 -46349386#1 -46349386#0 5669860#1 5669860#2 5669860#3 492148700#1 492148700#2 185934187 420354146#1 463035843 420354145 40337681 446864090 488272734#0 488272734#1 221687790#0 221687790#1"/>
    </vehicle>
    <vehicle id="bus37" type="bus_bus" depart="33.55" departLane="best">
        <route edges="46154330#3 -46154330#3 -46154330#2 -46154330#1 -525038147#1 -525038147#0 -438366913#3 -438366913#2 -438366913#1 -438366913#0 -194923778#1 -194923778#0 524361790 25562090#0 25562090#1 25562090#2 46224855 32935109 32935111#1 32936740 32936741 587355678 32939209 32939209-AddedOffRampEdge 5669077 46201644 533464384 194926842#0 194926842#1 420872205#1 144001606#1 144001605#1 144001605#3 420872177 5671719#3 368938760#0 368938760#1 -381477004#1 -46139021 5671349#3 226041000#0 226041000#1 226041000#2 226041000#3 226041000#4 226040999 226041001#0 226041001#2 226041001#3 226041001#4"/>
    </vehicle>
    <vehicle id="bus38" type="bus_bus" depart="34.46" departLane="best">
        <route edges="46201677#1 46201677#2 195745916#0 68325065#1 68325065#4 68325065#7 452319507#1 452319507#4 634986991 497769953#0 497769953#1 497769952 588293370#2 524387551#1 524387551#4 524387551#7 524387551#10 524388532#1 420352244#0 420352249#1 420352250#1 420352250#4 420352250#5 5671608#1 5671608#4 5671608#7 433398367#1 24263967#3 68325062 22927287#0 22927287#1 194923790 46350707#0 46350707#1 5672578#0"/>
    </vehicle>
    <vehicle id="bus39" type="bus_bus" depart="35.36" departLane="best">
        <route edges="39956203#5 5670191#0 5670191#1 -439842827 -281455419#4 -281455419#3 -281455419#1 -281455419#0 5669639#1 5669639#2 5669639#3 25198488#0 492148701#0 492148701#1 492148701#3 492148701#5 492148701#6 420629930#0 420629930#1 32972072#1 32972072#2 32972072#3 32972072#4 525036089#1 421830413 421830414 46629371#1 32936741 587355678 32939209 32939209-AddedOffRampEdge 5669077 46201644 533464384 194926842#0 194926842#1 420872205#1 556075521 -420872204 -554083352#1 587038129#0 554083353#0 518451327#1 46469731#0 46469731#1 46469731#2 46469731#3 496983399 496983398#0 5673561#0 5673561#2 464543615#2 -195743208#1 -195743208#0 194926854#0"/>
    </vehicle>
    <vehicle id="bus40" type="bus_bus" depart="36.27" departLane="best">
        <route edges="95181768#0 473884145 505776502 22903923#1 46334603#0 22909152#0 22909152#1 485556247#0 485556247#1 194923800#1 194923800#2 127693200#0 127693200#1 22914181#0 22914181#1 22914181#2 110489637 34080062#0 34080062#1 5670771#0 5670771#1 5672937#1 456308944"/>
    </vehicle>
    <vehicle id="bus41" type="bus_bus" depart="37.18" departLane="best">
        <route edges="-467222856#3 -467222856#2 5672871#0 5672871#1 5672871#2 5672871#3 5672871#4 181546837#19 496980200#1 420352246#1 420352243#1 181375404#1 181375404#4 181375404#7 181375404#10 420352241#0 524387550#1 524387550#2 195743178 457937084#1 457937084#4 457937084#5 181546839#1 474054794#1 474054794#4 195745917#1 420351718 420351722#1 199927850#1 456313638#1 433442263 385102416#0 385102416#1 420629930#0 420629930#1 397839400#1 397839400#2 397839400#3 -397839400#3"/>
    </vehicle>
    <vehicle id="bus42" type="bus_bus" depart="38.08" departLane="best">
        <route edges="-542096278#2 542096278#2 571651963 384178814 68674965 46520833#1 46520833#2 46520833#3 195743343#1 588168464 464515614#0 464515614#1 5669669#0 5669669#1 46581216#2"/>
    </vehicle>
    <vehicle id="bus43" type="bus_bus" depart="38.99" departLane="best">
        <route edges="5670296#1 5670296#2 5670296#3 489019752#1 489019752#2 489019752#3 226041019 46334597 5671317 447001272#1 447001272#2 420499932#0 420499932#2"/>
    </vehicle>
    <vehicle id="bus44" type="bus_bus" depart="39.90" departLane="best">
        <route edges="-439842799 439842799 226193933#10 226193933#11 226193933#12 226193933#13 226193933#14 194923796 420809448 420809443 420809439 420809415#1 420809415#2 22927463#0 22927463#3 420809411#1 420809414#3 -438901427#5 -438901427#4 -438901427#3 -438901427#2 -438901427#1 -485056263#1 -485056263#0 -467222856#8 -467222856#5 -467222856#3 -467222856#2 -467222856#1 -467222856#0 -505598707#1 -505598707#0 -591772210#3 -591772210#2 -591772210#1 -591772210#0 -438901171#1 -438901171#0 -388695705 388695705"/>
    </vehicle>
    <vehicle id="bus45" type="bus_bus" depart="40.80" departLane="best">
        <route edges="68674968#1 458177128#2 420499931#0 420496529 458166892#0 458166892#1 195743343#0 195743343#1 588168464 46490538#0 46490538#1 46490538#2 46490538#3 68668519 460606347#0 460606347#1"/>
    </vehicle>
    <vehicle id="bus46" type="bus_bus" depart="41.71" departLane="best">
        <route edges="619280607#0 619280607#3 46522002#0 46522002#1 46522002#2 458180187#0 458180187#1 5673063#7 5673063#9 5673063#10 5673063#11 511699175 458180183 438397345 464515891 511699184#0 511699184#1 511699185#1 438385431#1 438385431#2 438385431#3 438385431#4 438385431#5 420496529 458166892#0 458166892#1 195743343#0 195743343#1 588168464 464515614#0 464515614#1 464515614#2 464515614#3 587061854 68668552#1 68668552#2 483704511#1 5672965#1 5672965#2 5672965#3 5672965#4 5671620#1"/>
    </vehicle>
    <vehicle id="bus47" type="bus_bus" depart="42.62" departLane="best">
        <route edges="-194926839#1 157014136#1 157014136#2 420598266 420598241 420598281 420598236 378363223 420598294#0 420598294#1 420598234 420598238 420598256 420598262 420598248 118400726#0 118400726#2 118400726#5 118400726#9 118400726#11 118400726#13 118400726#14 118400726#15 118400726#16 118400726#17 118400726#18 349873701 118400728 5671083#0 5671083#1 195743157 -454963832#5 -454963832#4 -454963832#3 -454963832#2 -454963832#1 -454963832#0 420354141 165777195#0 165777195#1 165777195#2 165777195#3 420355081 464963297#0 414893144#1 496982789#1 496982789#2 420355082#1 165775306#0 222299242#0 222299242#1 -438901945 -414751458#1 -414751458#0 -42786502#5 -42786502#4 -42786502#3 -42786502#2 -42786502#1 -42786502#0 -5671717#1 -5671717#0 -420890077#1 -420890077#0 414744944 -524361790 194923778#0 194923778#1 438366913#0 438366913#1 438366913#2 438366913#3 525038147#0 525038147#1 46154330#1 370169932#0 370169932#2 480682395 536917119 525656841 46154327#0 526839040#0"/>
    </vehicle>
    <vehicle id="bus48" type="bus_bus" depart="43.52" departLane="best">
        <route edges="488376503#4 488376503#5 488376503#6 488376503#7 551074012#3 525727824#0 525727824#1 525727824#2 194923808#1 194923808#2 157014135#1 420598266 420598241 420598281 420598236 378363223 22897633#7 22897633#8 22897633#9 616745174#0 464683327#1 464683326#0 464683326#3 420598402#1 -5670924#4 -5670924#3 -5670924#0 195743341#0 195743341#1 195743341#2 195743341#3 195743341#4 195743341#5 195743341#6 439933929 68674966#0 24264070#0 24264070#1 157012398#0 157012398#1 157012398#2 157012398#4 157012398#5 157012387#1 157012387#2 157012387#3 439933948#0 439933948#4 439933948#5 5670792#0 5670792#1 46139034#2 46139034#4 46139034#6"/>
    </vehicle>
    <vehicle id="bus49" type="bus_bus" depart="44.43" departLane="best">
        <route edges="226041001#0 226041001#2 226041001#3 226041001#4 226041001#5 438385431#4 438385431#5 420496529 458166892#0 458166892#1 195743343#0 195743343#1 588168464 464515614#0 464515614#1 464515614#2 464515614#3 587061854 68668552#1 68668552#2 483704511#1 5672965#1 5672965#2 5672965#3 5672965#4 34080508#1 68668541#0 68668541#1 68668541#2 68668541#3 68668541#4 68668541#5 68668541#6 68668541#7 195743341#0 195743341#1 195743341#2 195743341#3 195743341#4 195743341#5 195743341#6 439933929 68674966#0 24264070#0 24264070#1 157012398#0 157012398#1 157012398#2 157012398#4 157012398#5 157012387#1 157012387#2 157012387#3 439933948#0 439933948#4 439933948#5 5670792#0 5670792#1 46139034#2 46139034#4 466956278#1"/>
    </vehicle>
    <vehicle id="bus50" type="bus_bus" depart="45.34" departLane="best">
        <route edges="-556075521 144001606#1 5670317#5 5670317#7 46469732#0 518451327#0 518451327#1 46469731#0 46469731#1 46469731#2 46469731#3 496983399 496983398#0 5673561#0 5673561#2 464543615#2 5670803 492489884 195743190 68668556 420512231#0 420512231#1 420512231#2 420598330#0 420598330#1 420598330#2 420598327 420598415"/>
    </vehicle>
    <vehicle id="bus51" type="bus_bus" depart="46.24" departLane="best">
        <route edges="420809419#4 439933945#0 116672642#0 116672642#1 5673342#0 5673342#1 46139034#0 46139034#1 46139034#2 466956271 466956276#0 466956276#1 466956276#2 466956276#3 466956276#4 466956272#1 466956272#2 421832644#0 421832644#1 421832644#2 539024459#0 539024459#1 539024459#2 539024459#3 539024459#4 539024459#5 539024459#6 68668546#0 68668546#1 68668546#2 68668546#3 584850104#0 584850104#1 584850104#2 439842823 439842831#0 439842831#1 439842831#2 439842831#3 439842831#4 -464964299 -166038132 166038145#0 46154282 -439842794 -451954047#1 451954046#0 451954046#1 5673127#0 5673127#1 569451559#0 569451559#1"/>
    </vehicle>
    <vehicle id="bus52" type="bus_bus" depart="47.15" departLane="best">
        <route edges="5672093#1 5672093#2 46349393#0 46349393#1 481962896#1 481962896#2 46349386#0 46349386#1 46349386#2 46349386#3 32972072#1 32972072#2 32972072#3 32972072#4 525036089#1 421830413 421830414 46629371#1 32936741 587355678 32939209 32939209-AddedOffRampEdge 5669077 46201644 533464384 194926842#0 194926842#1 420872205#1 144001606#1 144001605#1 144001605#3 420872177 5671719#3 368938760#0 368938760#1 -381477004#1 -46139021 5671349#3 226041000#0 226041000#1 226041000#2 226041000#3 5673626#2 226041005#3 226041005#4 226041005#5 226041005#6 226041003#0"/>
    </vehicle>
    <vehicle id="bus55" type="bus_bus" depart="49.87" departLane="best">