<?xml version="1.0" encoding="UTF-8"?>
<!-- generated on 2018-11-19 11:31:04.160721 by $Id$ via randomTrips.py
  options: 
-->
<routes xmlns:xsi="http://www.w3.org/2001/XMLSchema-instance" xsi:noNamespaceSchemaLocation="http://sumo.dlr.de/xsd/routes_file.xsd">
    <vType id="veh_passenger" vClass="passenger">
    </vType>
    <trip id="veh1" depart="0.18" departLane="best" from="226041021#1" to="195743182#3" type="veh_passenger"/>
    <trip id="veh2" depart="0.36" departLane="best" from="542255948#0" to="488376503#1" type="veh_passenger"/>
    <trip id="veh3" depart="0.54" departLane="best" from="5672415#2" to="-46348789" type="veh_passenger"/>
    <trip id="veh4" depart="0.73" departLane="best" from="414750044#14" to="-250267912#0" type="veh_passenger"/>
    <trip id="veh5" depart="0.91" departLane="best" from="194923808#7" to="452339699#2" type="veh_passenger"/>
    <trip id="veh6" depart="1.09" departLane="best" from="-25166891#4" to="188559800#4" type="veh_passenger"/>
    <trip id="veh8" depart="1.45" departLane="best" from="194923812#3" to="46350695" type="veh_passenger"/>
    <trip id="veh9" depart="1.63" departLane="best" from="5670633#2" to="-194923764#6" type="veh_passenger"/>
    <trip id="veh10" depart="1.81" departLane="best" from="5670581#1" to="497746843#0" type="veh_passenger"/>
    <trip id="veh11" depart="1.99" departLane="best" from="32936739#1" to="112116235#2" type="veh_passenger"/>
    <trip id="veh12" depart="2.18" departLane="best" from="587355679" to="335935798#1" type="veh_passenger"/>
    <trip id="veh14" depart="2.54" departLane="best" from="5671341#1" to="464683327#1" type="veh_passenger"/>
    <trip id="veh15" depart="2.72" departLane="best" from="5670600" to="539024460#3" type="veh_passenger"/>
    <trip id="veh16" depart="2.90" departLane="best" from="458180181#1" to="619277987#2" type="veh_passenger"/>
    <trip id="veh17" depart="3.08" departLane="best" from="381474197#1" to="46160244#1" type="veh_passenger"/>
    <trip id="veh19" depart="3.45" departLane="best" from="5671647#1" to="46332300#0" type="veh_passenger"/>
    <trip id="veh20" depart="3.63" departLane="best" from="505317789#1" to="-38605247" type="veh_passenger"/>
    <trip id="veh21" depart="3.81" departLane="best" from="195743197#1" to="22927462#5" type="veh_passenger"/>
    <trip id="veh22" depart="3.99" departLane="best" from="-46201668#1" to="195743555#0" type="veh_passenger"/>
    <trip id="veh24" depart="4.35" departLane="best" from="36806906#1" to="194923795#1" type="veh_passenger"/>
    <trip id="veh25" depart="4.53" departLane="best" from="226041001#2" to="5673515#0" type="veh_passenger"/>
    <trip id="veh26" depart="4.71" departLane="best" from="467222856#3" to="46469729#1" type="veh_passenger"/>
    <trip id="veh27" depart="4.90" departLane="best" from="125525165#2" to="539024459#6" type="veh_passenger"/>
    <trip id="veh28" depart="5.08" departLane="best" from="118400728" to="388281630#0" type="veh_passenger"/>
    <trip id="veh29" depart="5.26" departLane="best" from="68668541#5" to="466956276#0" type="veh_passenger"/>
    <trip id="veh30" depart="5.44" departLane="best" from="46154281#1" to="496978219" type="veh_passenger"/>
    <trip id="veh31" depart="5.62" departLane="best" from="5671261#1" to="5670011#1" type="veh_passenger"/>
    <trip id="veh32" depart="5.80" departLane="best" from="195743209" to="-25196678" type="veh_passenger"/>
    <trip id="veh33" depart="5.98" departLane="best" from="25196678" to="226041016#0" type="veh_passenger"/>
    <trip id="veh35" depart="6.35" departLane="best" from="5672118#0" to="256902829" type="veh_passenger"/>
    <trip id="veh36" depart="6.53" departLane="best" from="474054794#4" to="412115641#0" type="veh_passenger"/>
    <trip id="veh37" depart="6.71" departLane="best" from="5672973#10" to="420908128#1" type="veh_passenger"/>
    <trip id="veh38" depart="6.89" departLane="best" from="226040997#4" to="221687790#1" type="veh_passenger"/>
    <trip id="veh39" depart="7.07" departLane="best" from="46154330#3" to="226041001#4" type="veh_passenger"/>
    <trip id="veh40" depart="7.25" departLane="best" from="46201677#1" to="5672578#0" type="veh_passenger"/>
    <trip id="veh41" depart="7.44" departLane="best" from="39956203#5" to="194926854#0" type="veh_passenger"/>
    <trip id="veh42" depart="7.62" departLane="best" from="95181768#0" to="456308944" type="veh_passenger"/>
    <trip id="veh43" depart="7.80" departLane="best" from="-467222856#3" to="-397839400#3" type="veh_passenger"/>
    <trip id="veh44" depart="7.98" departLane="best" from="-542096278#2" to="46581216#2" type="veh_passenger"/>
    <trip id="veh45" depart="8.16" departLane="best" from="5670296#1" to="420499932#2" type="veh_passenger"/>
    <trip id="veh46" depart="8.34" departLane="best" from="-439842799" to="388695705" type="veh_passenger"/>
    <trip id="veh47" depart="8.52" departLane="best" from="68674968#1" to="460606347#1" type="veh_passenger"/>
    <trip id="veh48" depart="8.70" departLane="best" from="619280607#0" to="5671620#1" type="veh_passenger"/>
    <trip id="veh49" depart="8.89" departLane="best" from="-194926839#1" to="526839040#0" type="veh_passenger"/>
    <trip id="veh50" depart="9.07" departLane="best" from="488376503#4" to="46139034#6" type="veh_passenger"/>
    <trip id="veh51" depart="9.25" departLane="best" from="226041001#0" to="466956278#1" type="veh_passenger"/>
    <trip id="veh52" depart="9.43" departLane="best" from="-556075521" to="420598415" type="veh_passenger"/>
    <trip id="veh53" depart="9.61" departLane="best" from="420809419#4" to="569451559#1" type="veh_passenger"/>
    <trip id="veh54" depart="9.79" departLane="best" from="5672093#1" to="226041003#0" type="veh_passenger"/>
    <trip id="veh56" depart="10.16" departLane="best" from="5672922#1" to="5671799#1" type="veh_passenger"/>
    <trip id="veh58" depart="10.52" departLane="best" from="464516471#0" to="110854073#1" type="veh_passenger"/>
    <trip id="veh59" depart="10.70" departLane="best" from="5669829#1" to="46139039#2" type="veh_passenger"/>
    <trip id="veh61" depart="11.06" departLane="best" from="-125525165#0" to="317400962#1" type="veh_passenger"/>
    <trip id="veh62" depart="11.24" departLane="best" from="-226041016#0" to="5673210#0" type="veh_passenger"/>
    <trip id="veh63" depart="11.42" departLane="best" from="5672146#1" to="5670897#7" type="veh_passenger"/>
    <trip id="veh64" depart="11.61" departLane="best" from="239988110#1" to="-420356170#0" type="veh_passenger"/>
    <trip id="veh66" depart="11.97" departLane="best" from="-46431825#0" to="439842837#3" type="veh_passenger"/>
    <trip id="veh68" depart="12.33" departLane="best" from="5669882#1" to="-5672190#3" type="veh_passenger"/>
    <trip id="veh69" depart="12.51" departLane="best" from="421825692#1" to="46154338#2" type="veh_passenger"/>
    <trip id="veh70" depart="12.69" departLane="best" from="226040997#5" to="5672027#1" type="veh_passenger"/>
    <trip id="veh71" depart="12.88" departLane="best" from="414750044#9" to="194923801#3" type="veh_passenger"/>
    <trip id="veh72" depart="13.06" departLane="best" from="458180193#0" to="539024460#4" type="veh_passenger"/>
    <trip id="veh75" depart="13.60" departLane="best" from="420514148#1" to="458166897#1" type="veh_passenger"/>
    <trip id="veh76" depart="13.78" departLane="best" from="-5670924#3" to="195743196#1" type="veh_passenger"/>
    <trip id="veh77" depart="13.96" departLane="best" from="32935111#1" to="46350694#0" type="veh_passenger"/>
    <trip id="veh78" depart="14.14" departLane="best" from="195743227#2" to="194926856" type="veh_passenger"/>
    <trip id="veh79" depart="14.33" departLane="best" from="-46139021" to="46608205#9" type="veh_passenger"/>
    <trip id="veh80" depart="14.51" departLane="best" from="195743208#1" to="5672710#3" type="veh_passenger"/>
    <trip id="veh81" depart="14.69" departLane="best" from="5671593" to="-440681437#4" type="veh_passenger"/>
    <trip id="veh82" depart="14.87" departLane="best" from="195745911#1" to="481962592#3" type="veh_passenger"/>
    <trip id="veh83" depart="15.05" departLane="best" from="194923800#2" to="-5672621#5" type="veh_passenger"/>
    <trip id="veh84" depart="15.23" departLane="best" from="5673424#1" to="46201655#4" type="veh_passenger"/>
    <trip id="veh85" depart="15.41" departLane="best" from="420904657#0" to="5670124#1" type="veh_passenger"/>
    <trip id="veh87" depart="15.78" departLane="best" from="-481962592#0" to="420598323#1" type="veh_passenger"/>
    <trip id="veh88" depart="15.96" departLane="best" from="414751458#1" to="421853810#1" type="veh_passenger"/>
    <trip id="veh89" depart="16.14" departLane="best" from="536917118#8" to="483704512#9" type="veh_passenger"/>
    <trip id="veh90" depart="16.32" departLane="best" from="68325062" to="-485056263#1" type="veh_passenger"/>
    <trip id="veh91" depart="16.50" departLane="best" from="40709927" to="33804436#6" type="veh_passenger"/>
    <trip id="veh93" depart="16.86" departLane="best" from="159657620" to="420888146#1" type="veh_passenger"/>
    <trip id="veh96" depart="17.41" departLane="best" from="420598230#3" to="5671647#1" type="veh_passenger"/>
    <trip id="veh97" depart="17.59" departLane="best" from="46139034#2" to="-413045905" type="veh_passenger"/>
    <trip id="veh98" depart="17.77" departLane="best" from="95181768#5" to="5671061#0" type="veh_passenger"/>
    <trip id="veh99" depart="17.95" departLane="best" from="616745175#4" to="5673127#1" type="veh_passenger"/>
    <trip id="veh100" depart="18.13" departLane="best" from="5671354#0" to="125525165#2" type="veh_passenger"/>
    <trip id="veh101" depart="18.32" departLane="best" from="433394647#0" to="194923805#1" type="veh_passenger"/>
    <trip id="veh102" depart="18.50" departLane="best" from="40337681" to="-420519634#1" type="veh_passenger"/>
    <trip id="veh103" depart="18.68" departLane="best" from="381477008#0" to="68325104#1" type="veh_passenger"/>
    <trip id="veh104" depart="18.86" departLane="best" from="226040997#6" to="5670106#5" type="veh_passenger"/>
    <trip id="veh105" depart="19.04" departLane="best" from="420809421" to="420512232" type="veh_passenger"/>
    <trip id="veh106" depart="19.22" departLane="best" from="587355679" to="68674961#6" type="veh_passenger"/>
    <trip id="veh107" depart="19.40" departLane="best" from="46139048#2" to="525729010#1" type="veh_passenger"/>
    <trip id="veh109" depart="19.77" departLane="best" from="616745175#1" to="46334596#1" type="veh_passenger"/>
    <trip id="veh110" depart="19.95" departLane="best" from="460606348#0" to="561084838#6" type="veh_passenger"/>
    <trip id="veh111" depart="20.13" departLane="best" from="-421831216#0" to="46348767#2" type="veh_passenger"/>
    <trip id="veh112" depart="20.31" departLane="best" from="439933947" to="5671402" type="veh_passenger"/>
    <trip id="veh113" depart="20.49" departLane="best" from="110854073#4" to="587061854" type="veh_passenger"/>
    <trip id="veh114" depart="20.67" departLane="best" from="-46201668#2" to="157964812#1" type="veh_passenger"/>
    <trip id="veh115" depart="20.85" departLane="best" from="46334662#0" to="485165666" type="veh_passenger"/>
    <trip id="veh116" depart="21.04" departLane="best" from="195743554#4" to="-5671197#2" type="veh_passenger"/>
    <trip id="veh117" depart="21.22" departLane="best" from="5672409#1" to="221687788#2" type="veh_passenger"/>
    <trip id="veh118" depart="21.40" departLane="best" from="46334605#6" to="46492638" type="veh_passenger"/>
    <trip id="veh119" depart="21.58" departLane="best" from="414669905" to="46348767#0" type="veh_passenger"/>
    <trip id="veh120" depart="21.76" departLane="best" from="455501322" to="5673410#0" type="veh_passenger"/>
    <trip id="veh121" depart="21.94" departLane="best" from="194923761#2" to="525038147#1" type="veh_passenger"/>
    <trip id="veh122" depart="22.12" departLane="best" from="195745917#1" to="412115641#1" type="veh_passenger"/>
    <trip id="veh123" depart="22.31" departLane="best" from="480682397" to="239988110#4" type="veh_passenger"/>
    <trip id="veh124" depart="22.49" departLane="best" from="25198317#1" to="5669322#2" type="veh_passenger"/>
    <trip id="veh125" depart="22.67" departLane="best" from="-46154330#4" to="420904660#1" type="veh_passenger"/>
    <trip id="veh126" depart="22.85" departLane="best" from="95181768#14" to="68674968#1" type="veh_passenger"/>
    <trip id="veh127" depart="23.03" departLane="best" from="-46154337#2" to="194923804#0" type="veh_passenger"/>
    <trip id="veh128" depart="23.21" departLane="best" from="226040997#6" to="5673323#2" type="veh_passenger"/>
    <trip id="veh129" depart="23.39" departLane="best" from="5672159#3" to="5672146#1" type="veh_passenger"/>
    <trip id="veh130" depart="23.57" departLane="best" from="36806896" to="118400726#13" type="veh_passenger"/>
    <trip id="veh131" depart="23.76" departLane="best" from="5671008" to="511699179" type="veh_passenger"/>
    <trip id="veh132" depart="23.94" departLane="best" from="464543615#2" to="68668537#1" type="veh_passenger"/>
    <trip id="veh133" depart="24.12" departLane="best" from="468414632#1" to="-194923773#2" type="veh_passenger"/>
    <trip id="veh134" depart="24.30" departLane="best" from="5670736#0" to="239988110#1" type="veh_passenger"/>
    <trip id="veh135" depart="24.48" departLane="best" from="479642039#3" to="5673591#0" type="veh_passenger"/>
    <trip id="veh136" depart="24.66" departLane="best" from="-5672621#3" to="-5670402#2" type="veh_passenger"/>
    <trip id="veh137" depart="24.84" departLane="best" from="-529713036#1" to="46160365#2" type="veh_passenger"/>
    <trip id="veh138" depart="25.03" departLane="best" from="226041008#0" to="464683336" type="veh_passenger"/>
    <trip id="veh139" depart="25.21" departLane="best" from="524817694#1" to="194923768#2" type="veh_passenger"/>
    <trip id="veh140" depart="25.39" departLane="best" from="46607937#1" to="226041004#0" type="veh_passenger"/>
    <trip id="veh141" depart="25.57" departLane="best" from="438366913#1" to="5672710#2" type="veh_passenger"/>
    <trip id="veh143" depart="25.93" departLane="best" from="414751458#1" to="226193933#3" type="veh_passenger"/>
    <trip id="veh145" depart="26.29" departLane="best" from="46608946#2" to="226041000#4" type="veh_passenger"/>
    <trip id="veh146" depart="26.48" departLane="best" from="54369822#0" to="46160225#1" type="veh_passenger"/>
    <trip id="veh147" depart="26.66" departLane="best" from="420351725#1" to="-194926839#1" type="veh_passenger"/>
    <trip id="veh148" depart="26.84" departLane="best" from="-46160404#9" to="5672168#1" type="veh_passenger"/>
    <trip id="veh149" depart="27.02" departLane="best" from="5672681#6" to="46154297#1" type="veh_passenger"/>
    <trip id="veh150" depart="27.20" departLane="best" from="5671061#0" to="46334605#5" type="veh_passenger"/>
    <trip id="veh151" depart="27.38" departLane="best" from="-591772210#0" to="-5672183" type="veh_passenger"/>
    <trip id="veh152" depart="27.56" departLane="best" from="24263967#3" to="5672607#1" type="veh_passenger"/>
    <trip id="veh153" depart="27.75" departLane="best" from="5670402#0" to="5671620#1" type="veh_passenger"/>
    <trip id="veh154" depart="27.93" departLane="best" from="5672621#12" to="194923795#5" type="veh_passenger"/>
    <trip id="veh156" depart="28.29" departLane="best" from="5670092#11" to="5672184#0" type="veh_passenger"/>
    <trip id="veh157" depart="28.47" departLane="best" from="410302891#0" to="465098285" type="veh_passenger"/>
    <trip id="veh158" depart="28.65" departLane="best" from="-68668559#5" to="5673210#5" type="veh_passenger"/>
    <trip id="veh159" depart="28.83" departLane="best" from="5671668#0" to="630828554" type="veh_passenger"/>
    <trip id="veh160" depart="29.01" departLane="best" from="5670652#1" to="5672155#0" type="veh_passenger"/>
    <trip id="veh162" depart="29.38" departLane="best" from="31984136" to="5673309#1" type="veh_passenger"/>
    <trip id="veh163" depart="29.56" departLane="best" from="5670532#1" to="5671663#3" type="veh_passenger"/>
    <trip id="veh164" depart="29.74" departLane="best" from="5670652#1" to="226041007#2" type="veh_passenger"/>
    <trip id="veh165" depart="29.92" departLane="best" from="5670193#1" to="-529713036#6" type="veh_passenger"/>
    <trip id="veh166" depart="30.10" departLane="best" from="5671973#1" to="5671584#1" type="veh_passenger"/>
    <trip id="veh167" depart="30.28" departLane="best" from="194926854#1" to="5670719#6" type="veh_passenger"/>
    <trip id="veh168" depart="30.47" departLane="best" from="420872184" to="25167210#1" type="veh_passenger"/>
    <trip id="veh169" depart="30.65" departLane="best" from="5670366#5" to="195743228#1" type="veh_passenger"/>
    <trip id="veh170" depart="30.83" departLane="best" from="275016228#2" to="5671668#0" type="veh_passenger"/>
    <trip id="veh171" depart="31.01" departLane="best" from="612743236#1" to="22897633#8" type="veh_passenger"/>
    <trip id="veh172" depart="31.19" departLane="best" from="46610726#2" to="413050334#7" type="veh_passenger"/>
    <trip id="veh173" depart="31.37" departLane="best" from="640327300#0" to="46139034#0" type="veh_passenger"/>
    <trip id="veh174" depart="31.55" departLane="best" from="5673594#0" to="-5670402#1" type="veh_passenger"/>
    <trip id="veh176" depart="31.92" departLane="best" from="597821267#0" to="226041005#5" type="veh_passenger"/>
    <trip id="veh177" depart="32.10" departLane="best" from="-533394975#3" to="420598407" type="veh_passenger"/>
    <trip id="veh178" depart="32.28" departLane="best" from="536917118#5" to="256902826#1" type="veh_passenger"/>
    <trip id="veh179" depart="32.46" departLane="best" from="46432187#1" to="458106345#1" type="veh_passenger"/>
    <trip id="veh180" depart="32.64" departLane="best" from="38605247" to="46332295#2" type="veh_passenger"/>
    <trip id="veh181" depart="32.82" departLane="best" from="222299238#1" to="521358284" type="veh_passenger"/>
    <trip id="veh182" depart="33.00" departLane="best" from="-125525171" to="5673102#5" type="veh_passenger"/>
    <trip id="veh183" depart="33.19" departLane="best" from="458180187#2" to="525768550" type="veh_passenger"/>
    <trip id="veh184" depart="33.37" departLane="best" from="543902513#0" to="483236728#5" type="veh_passenger"/>
    <trip id="veh185" depart="33.55" departLane="best" from="356140743#0" to="-440681436#1" type="veh_passenger"/>
    <trip id="veh186" depart="33.73" departLane="best" from="479642040#3" to="32935551#4" type="veh_passenger"/>
    <trip id="veh187" depart="33.91" departLane="best" from="25167210#7" to="5671341#1" type="veh_passenger"/>
    <trip id="veh188" depart="34.09" departLane="best" from="525698215#0" to="24264070#0" type="veh_passenger"/>
    <trip id="veh189" depart="34.27" departLane="best" from="250267912#0" to="414750044#12" type="veh_passenger"/>
    <trip id="veh191" depart="34.64" departLane="best" from="-5671774#3" to="420358896#2" type="veh_passenger"/>
    <trip id="veh192" depart="34.82" departLane="best" from="5673619#1" to="488376503#4" type="veh_passenger"/>
    <trip id="veh193" depart="35.00" departLane="best" from="5672681#0" to="46490537#2" type="veh_passenger"/>
    <trip id="veh195" depart="35.36" departLane="best" from="-116672333#3" to="22927373#1" type="veh_passenger"/>
    <trip id="veh196" depart="35.54" departLane="best" from="420354364#0" to="46334598#3" type="veh_passenger"/>
    <trip id="veh198" depart="35.91" departLane="best" from="420530113#1" to="194923805#1" type="veh_passenger"/>
    <trip id="veh199" depart="36.09" departLane="best" from="420904660#1" to="5672621#5" type="veh_passenger"/>
    <trip id="veh200" depart="36.27" departLane="best" from="5670366#8" to="127691872#3" type="veh_passenger"/>
    <trip id="veh201" depart="36.45" departLane="best" from="-46350695" to="458166895#1" type="veh_passenger"/>
    <trip id="veh202" depart="36.63" departLane="best" from="46581216#3" to="33117932#0" type="veh_passenger"/>
    <trip id="veh203" depart="36.81" departLane="best" from="5670756#5" to="5669221" type="veh_passenger"/>
    <trip id="veh204" depart="36.99" departLane="best" from="481962592#0" to="195743196#1" type="veh_passenger"/>
    <trip id="veh206" depart="37.36" departLane="best" from="196117090#1" to="438367286#1" type="veh_passenger"/>
    <trip id="veh207" depart="37.54" departLane="best" from="5671359#0" to="-454031476#0" type="veh_passenger"/>
    <trip id="veh208" depart="37.72" departLane="best" from="413054850#2" to="46608205#11" type="veh_passenger"/>
    <trip id="veh209" depart="37.90" departLane="best" from="166038501#0" to="497165756#4" type="veh_passenger"/>
    <trip id="veh210" depart="38.08" departLane="best" from="438901427#1" to="19726366" type="veh_passenger"/>
    <trip id="veh211" depart="38.26" departLane="best" from="474635904" to="-194923762#2" type="veh_passenger"/>
    <trip id="veh212" depart="38.44" departLane="best" from="5669221" to="5669938#4" type="veh_passenger"/>
    <trip id="veh213" depart="38.63" departLane="best" from="-528792682#0" to="420522049#6" type="veh_passenger"/>
    <trip id="veh214" depart="38.81" departLane="best" from="127691874#2" to="584971531#3" type="veh_passenger"/>
    <trip id="veh215" depart="38.99" departLane="best" from="452339695" to="-410302891#0" type="veh_passenger"/>
    <trip id="veh216" depart="39.17" departLane="best" from="216959250#1" to="5671343#1" type="veh_passenger"/>
    <trip id="veh217" depart="39.35" departLane="best" from="420809442" to="5670510#1" type="veh_passenger"/>
    <trip id="veh218" depart="39.53" departLane="best" from="480112480#0" to="68668539#2" type="veh_passenger"/>
    <trip id="veh219" depart="39.71" departLane="best" from="46334663" to="569345515#1" type="veh_passenger"/>
    <trip id="veh220" depart="39.90" departLane="best" from="5672415#0" to="46481095#6" type="veh_passenger"/>
    <trip id="veh221" depart="40.08" departLane="best" from="525656847" to="452339697" type="veh_passenger"/>
    <trip id="veh222" depart="40.26" departLane="best" from="5670897#8" to="46154330#5" type="veh_passenger"/>
    <trip id="veh223" depart="40.44" departLane="best" from="5672578#0" to="54689818" type="veh_passenger"/>
    <trip id="veh224" depart="40.62" departLane="best" from="420908134" to="226040994#0" type="veh_passenger"/>
    <trip id="veh225" depart="40.80" departLane="best" from="199927850#1" to="46629376#0" type="veh_passenger"/>
    <trip id="veh226" depart="40.98" departLane="best" from="5669882#1" to="458177128#0" type="veh_passenger"/>
    <trip id="veh227" depart="41.16" departLane="best" from="46492017" to="226193930#2" type="veh_passenger"/>
    <trip id="veh228" depart="41.35" departLane="best" from="-46165819#1" to="22916319#1" type="veh_passenger"/>
    <trip id="veh229" depart="41.53" departLane="best" from="226041007#3" to="276670360" type="veh_passenger"/>
    <trip id="veh231" depart="41.89" departLane="best" from="195743264#3" to="496992363#3" type="veh_passenger"/>
    <trip id="veh232" depart="42.07" departLane="best" from="507432922" to="-428569356" type="veh_passenger"/>
    <trip id="veh233" depart="42.25" departLane="best" from="412115641#3" to="46139048#6" type="veh_passenger"/>
    <trip id="veh234" depart="42.43" departLane="best" from="413054857#6" to="194923781#0" type="veh_passenger"/>
    <trip id="veh235" depart="42.62" departLane="best" from="414747619#0" to="5672706#2" type="veh_passenger"/>
    <trip id="veh236" depart="42.80" departLane="best" from="46201668#1" to="497165756#0" type="veh_passenger"/>
    <trip id="veh237" depart="42.98" departLane="best" from="5671440#0" to="5669875#1" type="veh_passenger"/>
    <trip id="veh238" depart="43.16" departLane="best" from="381565180#2" to="-194923763#1" type="veh_passenger"/>
    <trip id="veh240" depart="43.52" departLane="best" from="5671404#1" to="569451558#1" type="veh_passenger"/>
    <trip id="veh241" depart="43.70" departLane="best" from="413749473" to="561084838#0" type="veh_passenger"/>
    <trip id="veh242" depart="43.88" departLane="best" from="46116390#3" to="464683323#1" type="veh_passenger"/>
    <trip id="veh243" depart="44.07" departLane="best" from="194923812#3" to="194926854#1" type="veh_passenger"/>
    <trip id="veh244" depart="44.25" departLane="best" from="420494981#0" to="-250267912#0" type="veh_passenger"/>
    <trip id="veh245" depart="44.43" departLane="best" from="32934351#0" to="489019754#0" type="veh_passenger"/>
    <trip id="veh246" depart="44.61" departLane="best" from="40709929#2" to="125480075" type="veh_passenger"/>
    <trip id="veh247" depart="44.79" departLane="best" from="420895282#3" to="-5672183" type="veh_passenger"/>
    <trip id="veh249" depart="45.15" departLane="best" from="396444294#6" to="46171878#4" type="veh_passenger"/>
    <trip id="veh250" depart="45.34" departLane="best" from="-25166922#1" to="467222828#1" type="veh_passenger"/>
    <trip id="veh251" depart="45.52" departLane="best" from="-5672646#3" to="421825693#0" type="veh_passenger"/>
    <trip id="veh252" depart="45.70" departLane="best" from="-414751576#3" to="388240124#9" type="veh_passenger"/>
    <trip id="veh253" depart="45.88" departLane="best" from="194923793" to="32922458" type="veh_passenger"/>
    <trip id="veh254" depart="46.06" departLane="best" from="5669745#4" to="388240124#9" type="veh_passenger"/>
    <trip id="veh255" depart="46.24" departLane="best" from="5669356" to="5670897#8" type="veh_passenger"/>
    <trip id="veh256" depart="46.42" departLane="best" from="221687793#1" to="-46201651#0" type="veh_passenger"/>
    <trip id="veh257" depart="46.61" departLane="best" from="-226040986#1" to="46139039#2" type="veh_passenger"/>
    <trip id="veh258" depart="46.79" departLane="best" from="95181774#1" to="350726028#3" type="veh_passenger"/>
    <trip id="veh261" depart="47.33" departLane="best" from="571651963" to="188559800#7" type="veh_passenger"/>
    <trip id="veh262" depart="47.51" departLane="best" from="-226193904#0" to="110542345" type="veh_passenger"/>
    <trip id="veh263" depart="47.69" departLane="best" from="-5671717#1" to="481962896#1" type="veh_passenger"/>
    <trip id="veh264" depart="47.87" departLane="best" from="46154338#5" to="194926840#0" type="veh_passenger"/>
    <trip id="veh265" depart="48.06" departLane="best" from="496993765#1" to="5669892#4" type="veh_passenger"/>
    <trip id="veh267" depart="48.42" departLane="best" from="5670770#0" to="591772210#2" type="veh_passenger"/>
    <trip id="veh269" depart="48.78" departLane="best" from="25163419#7" to="488376503#4" type="veh_passenger"/>
    <trip id="veh270" depart="48.96" departLane="best" from="588157330" to="412174929#4" type="veh_passenger"/>
    <trip id="veh271" depart="49.14" departLane="best" from="524394634#4" to="-46154281#1" type="veh_passenger"/>
    <trip id="veh272" depart="49.33" departLane="best" from="496980201#1" to="46581216#1" type="veh_passenger"/>
    <trip id="veh273" depart="49.51" departLane="best" from="-511699183#2" to="5669962#3" type="veh_passenger"/>
    <trip id="veh275" depart="49.87" departLane="best" from="-5670924#3" to="643444515#0" type="veh_passenger"/>
    <trip id="veh276" depart="50.05" departLane="best" from="5670106#3" to="348488662#0" type="veh_passenger"/>
    <trip id="veh277" depart="50.23" departLane="best" from="420352246#1" to="384178813#1" type="veh_passenger"/>
    <trip id="veh278" depart="50.41" departLane="best" from="440681437#5" to="34080174#7" type="veh_passenger"/>
    <trip id="veh279" depart="50.59" departLane="best" from="5671359#0" to="5670787#3" type="veh_passenger"/>
    <trip id="veh280" depart="50.78" departLane="best" from="46608205#3" to="5670877#0" type="veh_passenger"/>
    <trip id="veh281" depart="50.96" departLane="best" from="511699181" to="420772654#0" type="veh_passenger"/>
    <trip id="veh282" depart="51.14" departLane="best" from="541345307#0" to="597821266#11" type="veh_passenger"/>
    <trip id="veh283" depart="51.32" departLane="best" from="226041005#5" to="5670594#2" type="veh_passenger"/>
    <trip id="veh284" depart="51.50" departLane="best" from="458180187#0" to="439842823" type="veh_passenger"/>
    <trip id="veh285" depart="51.68" departLane="best" from="420494981#0" to="540356239#3" type="veh_passenger"/>
    <trip id="veh287" depart="52.05" departLane="best" from="5670920" to="-46348787#1" type="veh_passenger"/>
    <trip id="veh288" depart="52.23" departLane="best" from="5672168#1" to="19725512#1" type="veh_passenger"/>
    <trip id="veh289" depart="52.41" departLane="best" from="420890077#1" to="46469733#0" type="veh_passenger"/>
    <trip id="veh292" depart="52.95" departLane="best" from="194923794#2" to="5670402#3" type="veh_passenger"/>
    <trip id="veh293" depart="53.13" departLane="best" from="32936739#2" to="5672149#1" type="veh_passenger"/>
    <trip id="veh296" depart="53.68" departLane="best" from="-46350695" to="526571477#2" type="veh_passenger"/>
    <trip id="veh297" depart="53.86" departLane="best" from="438366913#1" to="5669669#4" type="veh_passenger"/>
    <trip id="veh299" depart="54.22" departLane="best" from="438384692#0" to="5670275" type="veh_passenger"/>
    <trip id="veh301" depart="54.58" departLane="best" from="496982787#2" to="25167210#9" type="veh_passenger"/>
    <trip id="veh302" depart="54.77" departLane="best" from="46201649" to="438362423#0" type="veh_passenger"/>
    <trip id="veh303" depart="54.95" departLane="best" from="458166896#9" to="420522050" type="veh_passenger"/>
    <trip id="veh304" depart="55.13" departLane="best" from="556311124#7" to="32936385#0" type="veh_passenger"/>
    <trip id="veh305" depart="55.31" departLane="best" from="500701825" to="226041025#2" type="veh_passenger"/>
    <trip id="veh306" depart="55.49" departLane="best" from="221687790#1" to="-5671296#0" type="veh_passenger"/>