<?xml version="1.0" encoding="UTF-8"?>
<!-- generated on 2018-11-19 11:31:25.857011 by $Id$
  options: 
-->
<routes xmlns:xsi="http://www.w3.org/2001/XMLSchema-instance" xsi:noNamespaceSchemaLocation="http://sumo.dlr.de/xsd/routes_file.xsd">
    <vType id="ped_pedestrian" vClass="pedestrian"/>
    <person id="ped0" depart="0.00" type="ped_pedestrian">
        <walk from="516631883#3" to="496944690#1"/>
    </person>
    <person id="ped1" depart="0.34" type="ped_pedestrian">
        <walk from="420788269#1" to="-378099316#1"/>
    </person>
    <person id="ped2" depart="0.69" type="ped_pedestrian">
        <walk from="22909798#4" to="433144119#0"/>
    </person>
    <person id="ped3" depart="1.03" type="ped_pedestrian">
        <walk from="22914179#3" to="46481755#1"/>
    </person>
    <person id="ped4" depart="1.37" type="ped_pedestrian">
        <walk from="561832676" to="-194923765"/>
    </person>
    <person id="ped5" depart="1.72" type="ped_pedestrian">
        <walk from="556311124#3" to="497484751#0"/>
    </person>
    <person id="ped6" depart="2.06" type="ped_pedestrian">
        <walk from="614901579#0" to="375034871#8"/>
    </person>
    <person id="ped7" depart="2.40" type="ped_pedestrian">
        <walk from="458166896#1" to="616745175#1"/>
    </person>
    <person id="ped8" depart="2.75" type="ped_pedestrian">
        <walk from="5670275" to="474864231#4"/>
    </person>
    <person id="ped9" depart="3.09" type="ped_pedestrian">
        <walk from="5671529#3" to="464515614#2"/>
    </person>
    <person id="ped10" depart="3.43" type="ped_pedestrian">
        <walk from="497505042#0" to="-42786502#4"/>
    </person>
    <person id="ped11" depart="3.78" type="ped_pedestrian">
        <walk from="-5673605#1" to="319773434#1"/>
    </person>
    <person id="ped12" depart="4.12" type="ped_pedestrian">
        <walk from="385668565#1" to="22898643"/>
    </person>
    <person id="ped13" depart="4.46" type="ped_pedestrian">
        <walk from="317204177#1" to="612741277#3"/>
    </person>
    <person id="ped14" depart="4.81" type="ped_pedestrian">
        <walk from="495537439#0" to="471525498"/>
    </person>
    <person id="ped15" depart="5.15" type="ped_pedestrian">
        <walk from="630828585#0" to="495520681#0"/>
    </person>
    <person id="ped16" depart="5.49" type="ped_pedestrian">
        <walk from="5670787#3" to="533399353#4"/>
    </person>
    <person id="ped17" depart="5.84" type="ped_pedestrian">
        <walk from="22986689" to="-384178812#2"/>
    </person>
    <person id="ped18" depart="6.18" type="ped_pedestrian">
        <walk from="495920778#1" to="40879216#1"/>
    </person>
    <person id="ped19" depart="6.52" type="ped_pedestrian">
        <walk from="576185022#0" to="430610041#0"/>
    </person>
    <person id="ped20" depart="6.87" type="ped_pedestrian">
        <walk from="46171878#4" to="313639560#3"/>
    </person>
    <person id="ped21" depart="7.21" type="ped_pedestrian">
        <walk from="464803258#2" to="5673367#0"/>
    </person>
    <person id="ped22" depart="7.55" type="ped_pedestrian">
        <walk from="68674961#6" to="438385431#4"/>
    </person>
    <person id="ped23" depart="7.90" type="ped_pedestrian">
        <walk from="68668559#2" to="453242694"/>
    </person>
    <person id="ped24" depart="8.24" type="ped_pedestrian">
        <walk from="616665663#0" to="5671457#5"/>
    </person>
    <person id="ped25" depart="8.58" type="ped_pedestrian">
        <walk from="471524646" to="157012386#14"/>
    </person>
    <person id="ped26" depart="8.93" type="ped_pedestrian">
        <walk from="533399372#1" to="453374930"/>
    </person>
    <person id="ped27" depart="9.27" type="ped_pedestrian">
        <walk from="-106877222#0" to="364569000#2"/>
    </person>
    <person id="ped28" depart="9.61" type="ped_pedestrian">
        <walk from="-25167210#1" to="610648151#0"/>
    </person>
    <person id="ped29" depart="9.96" type="ped_pedestrian">
        <walk from="5672402#0" to="613510054#0"/>
    </person>
    <person id="ped30" depart="10.30" type="ped_pedestrian">
        <walk from="-5669837#0" to="430868636"/>
    </person>
    <person id="ped31" depart="10.64" type="ped_pedestrian">
        <walk from="531511297#1" to="110854073#6"/>
    </person>
    <person id="ped32" depart="10.99" type="ped_pedestrian">
        <walk from="430829635#8" to="46139038#1"/>
    </person>
    <person id="ped33" depart="11.33" type="ped_pedestrian">
        <walk from="458180181#1" to="513706139"/>
    </person>
    <person id="ped34" depart="11.67" type="ped_pedestrian">
        <walk from="68668546#0" to="495547049#0"/>
    </person>
    <person id="ped35" depart="12.02" type="ped_pedestrian">
        <walk from="422248703#1" to="440681437#2"/>
    </person>
    <person id="ped36" depart="12.36" type="ped_pedestrian">
        <walk from="108235826" to="22927411#6"/>
    </person>
    <person id="ped37" depart="12.70" type="ped_pedestrian">
        <walk from="-481403099#0" to="483704511#1"/>
    </person>
    <person id="ped38" depart="13.05" type="ped_pedestrian">
        <walk from="22986678#0" to="569345547#1"/>
    </person>
    <person id="ped39" depart="13.39" type="ped_pedestrian">
        <walk from="25199883#5" to="496162974#3"/>
    </person>
    <person id="ped40" depart="13.73" type="ped_pedestrian">
        <walk from="-5672621#18" to="421825692#5"/>
    </person>
    <person id="ped41" depart="14.08" type="ped_pedestrian">
        <walk from="620640667#3" to="-5672922#0"/>
    </person>
    <person id="ped42" depart="14.42" type="ped_pedestrian">
        <walk from="420788269#1" to="320783774#0"/>
    </person>
    <person id="ped43" depart="14.76" type="ped_pedestrian">
        <walk from="426651389#2" to="5671529#1"/>
    </person>
    <person id="ped44" depart="15.11" type="ped_pedestrian">
        <walk from="46139039#3" to="-440681437#4"/>
    </person>
    <person id="ped45" depart="15.45" type="ped_pedestrian">
        <walk from="95163095#2" to="5670584#3"/>
    </person>
    <person id="ped46" depart="15.79" type="ped_pedestrian">
        <walk from="616658935" to="610647283#1"/>
    </person>
    <person id="ped47" depart="16.14" type="ped_pedestrian">
        <walk from="5670924#0" to="194923764#1"/>
    </person>
    <person id="ped48" depart="16.48" type="ped_pedestrian">
        <walk from="413054286#1" to="-46160406#1"/>
    </person>
    <person id="ped49" depart="16.82" type="ped_pedestrian">
        <walk from="391062192#1" to="620646463#1"/>
    </person>
    <person id="ped50" depart="17.17" type="ped_pedestrian">
        <walk from="315174038#3" to="533820530#1"/>
    </person>
    <person id="ped51" depart="17.51" type="ped_pedestrian">
        <walk from="614901579#1" to="68668546#3"/>
    </person>
    <person id="ped52" depart="17.86" type="ped_pedestrian">
        <walk from="616658932" to="464683316#2"/>
    </person>
    <person id="ped53" depart="18.20" type="ped_pedestrian">
        <walk from="459175383#2" to="527855913#1"/>
    </person>
    <person id="ped54" depart="18.54" type="ped_pedestrian">
        <walk from="465252754#0" to="496175217#1"/>
    </person>
    <person id="ped55" depart="18.89" type="ped_pedestrian">
        <walk from="25564580" to="40879219#0"/>
    </person>
    <person id="ped56" depart="19.23" type="ped_pedestrian">
        <walk from="496165306#1" to="352324956#2"/>
    </person>
    <person id="ped57" depart="19.57" type="ped_pedestrian">
        <walk from="35984335" to="527874595#2"/>
    </person>
    <person id="ped58" depart="19.92" type="ped_pedestrian">
        <walk from="-496978218" to="430408018#0"/>
    </person>
    <person id="ped59" depart="20.26" type="ped_pedestrian">
        <walk from="75359816#1" to="68668559#2"/>
    </person>
    <person id="ped60" depart="20.60" type="ped_pedestrian">
        <walk from="-497497218#0" to="22909323#2"/>
    </person>
    <person id="ped61" depart="20.95" type="ped_pedestrian">
        <walk from="5670514#2" to="497505032#1"/>
    </person>
    <person id="ped62" depart="21.29" type="ped_pedestrian">
        <walk from="495920771#0" to="-194923798#2"/>
    </person>
    <person id="ped63" depart="21.63" type="ped_pedestrian">
        <walk from="5669892#1" to="352324954#6"/>
    </person>
    <person id="ped64" depart="21.98" type="ped_pedestrian">
        <walk from="118400726#15" to="-616745176"/>
    </person>
    <person id="ped65" depart="22.32" type="ped_pedestrian">
        <walk from="317332162#0" to="468016993#1"/>
    </person>
    <person id="ped66" depart="22.66" type="ped_pedestrian">
        <walk from="510987444" to="226193913#2"/>
    </person>
    <person id="ped67" depart="23.01" type="ped_pedestrian">
        <walk from="5670877#0" to="-5671307#3"/>
    </person>
    <person id="ped68" depart="23.35" type="ped_pedestrian">
        <walk from="524817694#3" to="46139048#6"/>
    </person>
    <person id="ped69" depart="23.69" type="ped_pedestrian">
        <walk from="140812537" to="109458132"/>
    </person>
    <person id="ped70" depart="24.04" type="ped_pedestrian">
        <walk from="352705253#3" to="5673441#1"/>
    </person>
    <person id="ped71" depart="24.38" type="ped_pedestrian">
        <walk from="414750044#14" to="47796319#0"/>
    </person>
    <person id="ped72" depart="24.72" type="ped_pedestrian">
        <walk from="157014135#1" to="610648156#2"/>
    </person>
    <person id="ped73" depart="25.07" type="ped_pedestrian">
        <walk from="5671661#0" to="619516041#5"/>
    </person>
    <person id="ped74" depart="25.41" type="ped_pedestrian">
        <walk from="5668997" to="5672604#3"/>
    </person>
    <person id="ped75" depart="25.75" type="ped_pedestrian">
        <walk from="-322428254" to="516631883#4"/>
    </person>
    <person id="ped76" depart="26.10" type="ped_pedestrian">
        <walk from="374923077#1" to="610834120#1"/>
    </person>
    <person id="ped77" depart="26.44" type="ped_pedestrian">
        <walk from="547089938#0" to="5671659#0"/>
    </person>
    <person id="ped78" depart="26.78" type="ped_pedestrian">
        <walk from="5668997" to="317167966#1"/>
    </person>
    <person id="ped79" depart="27.13" type="ped_pedestrian">
        <walk from="22927264#2" to="5669866#5"/>
    </person>
    <person id="ped80" depart="27.47" type="ped_pedestrian">
        <walk from="430610049#2" to="352705236#1"/>
    </person>
    <person id="ped81" depart="27.81" type="ped_pedestrian">
        <walk from="541448651" to="22936299#3"/>
    </person>
    <person id="ped82" depart="28.16" type="ped_pedestrian">
        <walk from="616656199#2" to="321993367#2"/>
    </person>
    <person id="ped83" depart="28.50" type="ped_pedestrian">
        <walk from="616663150#0" to="195745920"/>
    </person>
    <person id="ped84" depart="28.84" type="ped_pedestrian">
        <walk from="616649799#2" to="315174039#3"/>
    </person>
    <person id="ped85" depart="29.19" type="ped_pedestrian">
        <walk from="-570170876" to="421863328#1"/>
    </person>
    <person id="ped86" depart="29.53" type="ped_pedestrian">
        <walk from="46835368#1" to="439842820#1"/>
    </person>
    <person id="ped87" depart="29.87" type="ped_pedestrian">
        <walk from="-125525165#4" to="610302525#1"/>
    </person>
    <person id="ped88" depart="30.22" type="ped_pedestrian">
        <walk from="458177128#2" to="511809759"/>
    </person>
    <person id="ped89" depart="30.56" type="ped_pedestrian">
        <walk from="525656852" to="496162990"/>
    </person>
    <person id="ped90" depart="30.90" type="ped_pedestrian">
        <walk from="495946395#2" to="372701485"/>
    </person>
    <person id="ped91" depart="31.25" type="ped_pedestrian">
        <walk from="354393961#0" to="5670910"/>
    </person>
    <person id="ped92" depart="31.59" type="ped_pedestrian">
        <walk from="109458119#1" to="420788232#2"/>
    </person>
    <person id="ped93" depart="31.93" type="ped_pedestrian">
        <walk from="613493203#0" to="496944692#0"/>
    </person>
    <person id="ped94" depart="32.28" type="ped_pedestrian">
        <walk from="352329972#10" to="46116435#0"/>
    </person>
    <person id="ped95" depart="32.62" type="ped_pedestrian">
        <walk from="541448660" to="194923795#3"/>
    </person>
    <person id="ped96" depart="32.96" type="ped_pedestrian">
        <walk from="488272734#0" to="374925031#1"/>
    </person>
    <person id="ped97" depart="33.31" type="ped_pedestrian">
        <walk from="496165313#4" to="22927411#5"/>
    </person>
    <person id="ped98" depart="33.65" type="ped_pedestrian">
        <walk from="5671028#1" to="-496982627#1"/>
    </person>
    <person id="ped99" depart="33.99" type="ped_pedestrian">
        <walk from="431040819#0" to="277885772#1"/>
    </person>
    <person id="ped100" depart="34.34" type="ped_pedestrian">
        <walk from="-570158603#0" to="420872180#6"/>
    </person>
    <person id="ped101" depart="34.68" type="ped_pedestrian">
        <walk from="195743267#2" to="614901580"/>
    </person>
    <person id="ped102" depart="35.02" type="ped_pedestrian">
        <walk from="441167004#1" to="-440681437#0"/>
    </person>
    <person id="ped103" depart="35.37" type="ped_pedestrian">
        <walk from="430389981#1" to="546665393#1"/>
    </person>
    <person id="ped104" depart="35.71" type="ped_pedestrian">
        <walk from="496162965#0" to="623679179#0"/>
    </person>
    <person id="ped105" depart="36.05" type="ped_pedestrian">
        <walk from="465252755#3" to="614573611#1"/>
    </person>
    <person id="ped106" depart="36.40" type="ped_pedestrian">
        <walk from="511809757" to="433144114#1"/>
    </person>
    <person id="ped107" depart="36.74" type="ped_pedestrian">
        <walk from="5670366#0" to="46116403"/>
    </person>
    <person id="ped108" depart="37.08" type="ped_pedestrian">
        <walk from="5673316#7" to="525727823#0"/>
    </person>
    <person id="ped109" depart="37.43" type="ped_pedestrian">
        <walk from="277945794#2" to="495508538#1"/>
    </person>
    <person id="ped110" depart="37.77" type="ped_pedestrian">
        <walk from="531511297#1" to="446864091#1"/>
    </person>
    <person id="ped111" depart="38.11" type="ped_pedestrian">
        <walk from="-528755493#0" to="33804436#5"/>
    </person>
    <person id="ped112" depart="38.46" type="ped_pedestrian">
        <walk from="464803255#1" to="497475176"/>
    </person>
    <person id="ped113" depart="38.80" type="ped_pedestrian">
        <walk from="5671343#2" to="531511296#0"/>
    </person>
    <person id="ped114" depart="39.14" type="ped_pedestrian">
        <walk from="392495064#1" to="-194923762#1"/>
    </person>
    <person id="ped115" depart="39.49" type="ped_pedestrian">
        <walk from="5671202#2" to="614901552"/>
    </person>
    <person id="ped116" depart="39.83" type="ped_pedestrian">
        <walk from="420598330#2" to="527855904#1"/>
    </person>
    <person id="ped117" depart="40.17" type="ped_pedestrian">
        <walk from="460581660#1" to="468001310#0"/>
    </person>
    <person id="ped118" depart="40.52" type="ped_pedestrian">
        <walk from="22914179#4" to="22909869#0"/>
    </person>
    <person id="ped119" depart="40.86" type="ped_pedestrian">
        <walk from="375034871#2" to="496945912#1"/>
    </person>
    <person id="ped120" depart="41.20" type="ped_pedestrian">
        <walk from="414744167#1" to="188559800#4"/>
    </person>
    <person id="ped121" depart="41.55" type="ped_pedestrian">
        <walk from="430610567" to="110489638#1"/>
    </person>
    <person id="ped122" depart="41.89" type="ped_pedestrian">
        <walk from="479642035#0" to="-352705238#0"/>
    </person>
    <person id="ped123" depart="42.23" type="ped_pedestrian">
        <walk from="40709921#3" to="46201677#1"/>
    </person>
    <person id="ped124" depart="42.58" type="ped_pedestrian">
        <walk from="-352705238#4" to="495520966#1"/>
    </person>
    <person id="ped125" depart="42.92" type="ped_pedestrian">
        <walk from="530547418" to="391062194"/>
    </person>
    <person id="ped126" depart="43.26" type="ped_pedestrian">
        <walk from="297995650#1" to="-546163730"/>
    </person>
    <person id="ped127" depart="43.61" type="ped_pedestrian">
        <walk from="109337497#0" to="496162981#0"/>
    </person>
    <person id="ped128" depart="43.95" type="ped_pedestrian">
        <walk from="497497218#1" to="531511302#4"/>
    </person>
    <person id="ped129" depart="44.29" type="ped_pedestrian">
        <walk from="5669953#7" to="616649818#1"/>
    </person>
    <person id="ped130" depart="44.64" type="ped_pedestrian">
        <walk from="497473857#1" to="480972178"/>
    </person>
    <person id="ped131" depart="44.98" type="ped_pedestrian">
        <walk from="5671095#5" to="46610729"/>
    </person>
    <person id="ped132" depart="45.32" type="ped_pedestrian">
        <walk from="420901679" to="385668565#8"/>
    </person>
    <person id="ped133" depart="45.67" type="ped_pedestrian">
        <walk from="5671008" to="5670058#2"/>
    </person>
    <person id="ped134" depart="46.01" type="ped_pedestrian">
        <walk from="492148703#0" to="5670243#2"/>
    </person>
    <person id="ped135" depart="46.35" type="ped_pedestrian">
        <walk from="497769952" to="421863336#0"/>
    </person>
    <person id="ped136" depart="46.70" type="ped_pedestrian">
        <walk from="515665895" to="616649823#0"/>
    </person>
    <person id="ped137" depart="47.04" type="ped_pedestrian">
        <walk from="421863337#0" to="514021978"/>
    </person>
    <person id="ped138" depart="47.38" type="ped_pedestrian">
        <walk from="317208070" to="5671172#0"/>
    </person>
    <person id="ped139" depart="47.73" type="ped_pedestrian">
        <walk from="5672607#0" to="277885771#3"/>
    </person>
    <person id="ped140" depart="48.07" type="ped_pedestrian">
        <walk from="391062192#1" to="-364262732#5"/>
    </person>
    <person id="ped141" depart="48.41" type="ped_pedestrian">
        <walk from="497503641#1" to="317400962#4"/>
    </person>
    <person id="ped142" depart="48.76" type="ped_pedestrian">
        <walk from="497473857#1" to="495535802#1"/>
    </person>
    <person id="ped143" depart="49.10" type="ped_pedestrian">
        <walk from="431040804#1" to="539024460#6"/>
    </person>
    <person id="ped144" depart="49.44" type="ped_pedestrian">
        <walk from="497473866#1" to="352705241#6"/>
    </person>
    <person id="ped145" depart="49.79" type="ped_pedestrian">
        <walk from="526839040#2" to="372721427"/>
    </person>
    <person id="ped146" depart="50.13" type="ped_pedestrian">
        <walk from="619517018#2" to="451954041#1"/>
    </person>
    <person id="ped147" depart="50.47" type="ped_pedestrian">
        <walk from="196116989#0" to="-222299275#7"/>
    </person>
    <person id="ped148" depart="50.82" type="ped_pedestrian">
        <walk from="5672138#1" to="46350694#3"/>
    </person>
    <person id="ped149" depart="51.16" type="ped_pedestrian">
        <walk from="430611494#3" to="423932524#0"/>
    </person>
    <person id="ped150" depart="51.50" type="ped_pedestrian">
        <walk from="613493208#0" to="430829660#6"/>
    </person>
    <person id="ped151" depart="51.85" type="ped_pedestrian">
        <walk from="5670047#0" to="413051876#2"/>
    </person>
    <person id="ped152" depart="52.19" type="ped_pedestrian">
        <walk from="-454963832#4" to="140812560#0"/>
    </person>
    <person id="ped153" depart="52.54" type="ped_pedestrian">
        <walk from="531510157#2" to="468414626"/>
    </person>
    <person id="ped154" depart="52.88" type="ped_pedestrian">
        <walk from="538845740#4" to="22927668"/>
    </person>
    <person id="ped155" depart="53.22" type="ped_pedestrian">
        <walk from="630828589#1" to="352705238#3"/>
    </person>
    <person id="ped156" depart="53.57" type="ped_pedestrian">
        <walk from="495933394#0" to="161026131"/>
    </person>
    <person id="ped157" depart="53.91" type="ped_pedestrian">
        <walk from="195743179#0" to="-524610937#0"/>
    </person>
    <person id="ped158" depart="54.25" type="ped_pedestrian">
        <walk from="46522006" to="350563861#13"/>
    </person>
    <person id="ped159" depart="54.60" type="ped_pedestrian">
        <walk from="495537433#1" to="570151174"/>
    </person>
    <person id="ped160" depart="54.94" type="ped_pedestrian">
        <walk from="194923762#0" to="352705250#6"/>
    </person>
    <person id="ped161" depart="55.28" type="ped_pedestrian">
        <walk from="347311223#5" to="109328317#2"/>
    </person>
    <person id="ped162" depart="55.63" type="ped_pedestrian">
        <walk from="497473845#0" to="497498548"/>
    </person>
    <person id="ped163" depart="55.97" type="ped_pedestrian">
        <walk from="584850105#3" to="196117090#2"/>
    </person>
    <person id="ped164" depart="56.31" type="ped_pedestrian">
        <walk from="371317543" to="497475164#2"/>
    </person>
    <person id="ped165" depart="56.66" type="ped_pedestrian">
        <walk from="430389973#0" to="354393963#3"/>
    </person>
    <person id="ped166" depart="57.00" type="ped_pedestrian">
        <walk from="414743582#1" to="439933947"/>
    </person>
    <person id="ped167" depart="57.34" type="ped_pedestrian">
        <walk from="221687793#0" to="385105193#7"/>
    </person>
    <person id="ped168" depart="57.69" type="ped_pedestrian">
        <walk from="530038711#2" to="480112483"/>
    </person>
    <person id="ped169" depart="58.03" type="ped_pedestrian">
        <walk from="46139034#6" to="610647392#0"/>
    </person>
    <person id="ped170" depart="58.37" type="ped_pedestrian">
        <walk from="471523502#3" to="256902829"/>
    </person>
    <person id="ped171" depart="58.72" type="ped_pedestrian">
        <walk from="161768211#4" to="46139041#2"/>
    </person>
    <person id="ped172" depart="59.06" type="ped_pedestrian">
        <walk from="64624821#0" to="571267477"/>
    </person>
    <person id="ped173" depart="59.40" type="ped_pedestrian">
        <walk from="5670418#0" to="433110962#0"/>
    </person>
    <person id="ped174" depart="59.75" type="ped_pedestrian">
        <walk from="317332166#1" to="5670536#9"/>
    </person>
    <person id="ped175" depart="60.09" type="ped_pedestrian">
        <walk from="46139048#0" to="394355333#0"/>
    </person>
    <person id="ped176" depart="60.43" type="ped_pedestrian">
        <walk from="420499932#2" to="610906274"/>
    </person>
    <person id="ped177" depart="60.78" type="ped_pedestrian">
        <walk from="433442263" to="5669978#2"/>
    </person>
    <person id="ped178" depart="61.12" type="ped_pedestrian">
        <walk from="329234505" to="352324952#9"/>
    </person>
    <person id="ped179" depart="61.46" type="ped_pedestrian">
        <walk from="458177130" to="380817545#1"/>
    </person>
    <person id="ped180" depart="61.81" type="ped_pedestrian">
        <walk from="430389976#0" to="364262678#1"/>
    </person>
    <person id="ped181" depart="62.15" type="ped_pedestrian">
        <walk from="46348767#2" to="249664808"/>
    </person>
    <person id="ped182" depart="62.49" type="ped_pedestrian">
        <walk from="533399351#0" to="-420884506#0"/>
    </person>
    <person id="ped183" depart="62.84" type="ped_pedestrian">
        <walk from="620640651#2" to="431040823#1"/>
    </person>
    <person id="ped184" depart="63.18" type="ped_pedestrian">
        <walk from="452059591#3" to="430404700#1"/>
    </person>
    <person id="ped185" depart="63.52" type="ped_pedestrian">
        <walk from="430611494#4" to="616658937#0"/>
    </person>
    <person id="ped186" depart="63.87" type="ped_pedestrian">
        <walk from="495547046#1" to="5671172#1"/>
    </person>
    <person id="ped187" depart="64.21" type="ped_pedestrian">
        <walk from="598592965#1" to="68674961#4"/>
    </person>
    <person id="ped188" depart="64.55" type="ped_pedestrian">
        <walk from="-428569470#1" to="541448661"/>
    </person>
    <person id="ped189" depart="64.90" type="ped_pedestrian">
        <walk from="350726031" to="388275224#3"/>
    </person>
    <person id="ped190" depart="65.24" type="ped_pedestrian">
        <walk from="140391522#3" to="453456966#4"/>
    </person>
    <person id="ped191" depart="65.58" type="ped_pedestrian">
        <walk from="297995669#1" to="297995672#4"/>
    </person>
    <person id="ped192" depart="65.93" type="ped_pedestrian">
        <walk from="-195743199#2" to="555269290"/>
    </person>
    <person id="ped193" depart="66.27" type="ped_pedestrian">
        <walk from="279829745#3" to="5670836#2"/>
    </person>
    <person id="ped194" depart="66.61" type="ped_pedestrian">
        <walk from="495933384#1" to="5670657"/>
    </person>
    <person id="ped195" depart="66.96" type="ped_pedestrian">
        <walk from="495535806#0" to="353069285#2"/>
    </person>
    <person id="ped196" depart="67.30" type="ped_pedestrian">
        <walk from="423932533#0" to="464683322"/>
    </person>
    <person id="ped197" depart="67.64" type="ped_pedestrian">
        <walk from="195743210" to="113722989#1"/>
    </person>
    <person id="ped198" depart="67.99" type="ped_pedestrian">
        <walk from="453456965#1" to="572085021#1"/>
    </person>
    <person id="ped199" depart="68.33" type="ped_pedestrian">
        <walk from="5670317#7" to="297995676#10"/>
    </person>
    <person id="ped200" depart="68.67" type="ped_pedestrian">
        <walk from="512131389" to="619523378#0"/>
    </person>
    <person id="ped201" depart="69.02" type="ped_pedestrian">
        <walk from="496165311#1" to="464803258#2"/>
    </person>
    <person id="ped202" depart="69.36" type="ped_pedestrian">
        <walk from="5670058#3" to="613493203#0"/>
    </person>
    <person id="ped203" depart="69.70" type="ped_pedestrian">
        <walk from="22916379#1" to="-464543615#1"/>
    </person>
    <person id="ped204" depart="70.05" type="ped_pedestrian">
        <walk from="5670092#12" to="570158629"/>
    </person>
    <person id="ped205" depart="70.39" type="ped_pedestrian">
        <walk from="352337601#6" to="415082475#0"/>
    </person>
    <person id="ped206" depart="70.73" type="ped_pedestrian">
        <walk from="352373007#0" to="431040810#15"/>
    </person>
    <person id="ped207" depart="71.08" type="ped_pedestrian">
        <walk from="-5672621#20" to="5672910#0"/>
    </person>
    <person id="ped208" depart="71.42" type="ped_pedestrian">
        <walk from="496162989#0" to="525707999#0"/>
    </person>
    <person id="ped209" depart="71.76" type="ped_pedestrian">
        <walk from="525701040#0" to="157014135#1"/>
    </person>
    <person id="ped210" depart="72.11" type="ped_pedestrian">
        <walk from="430868655" to="415082456#0"/>
    </person>
    <person id="ped211" depart="72.45" type="ped_pedestrian">
        <walk from="-5673038" to="496986998#1"/>
    </person>
    <person id="ped212" depart="72.79" type="ped_pedestrian">
        <walk from="385103138#1" to="410310408#1"/>
    </person>
    <person id="ped213" depart="73.14" type="ped_pedestrian">
        <walk from="5670910" to="430389971#3"/>
    </person>
    <person id="ped214" depart="73.48" type="ped_pedestrian">
        <walk from="5671933#4" to="369686012#1"/>
    </person>
    <person id="ped215" depart="73.82" type="ped_pedestrian">
        <walk from="136172866#2" to="112588882#1"/>
    </person>
    <person id="ped216" depart="74.17" type="ped_pedestrian">
        <walk from="281455419#1" to="195743191#0"/>
    </person>
    <person id="ped217" depart="74.51" type="ped_pedestrian">
        <walk from="-226040986#0" to="538836226#0"/>
    </person>
    <person id="ped218" depart="74.85" type="ped_pedestrian">
        <walk from="25199883#4" to="364568998#1"/>
    </person>
    <person id="ped219" depart="75.20" type="ped_pedestrian">
        <walk from="533820524#0" to="5671756#0"/>
    </person>
    <person id="ped220" depart="75.54" type="ped_pedestrian">
        <walk from="446864091#3" to="430404710#1"/>
    </person>
    <person id="ped221" depart="75.88" type="ped_pedestrian">
        <walk from="616649813#1" to="-46211851#2"/>
    </person>
    <person id="ped222" depart="76.23" type="ped_pedestrian">
        <walk from="496990216" to="431040800#3"/>
    </person>
    <person id="ped223" depart="76.57" type="ped_pedestrian">
        <walk from="364569012#1" to="68668541#1"/>
    </person>
    <person id="ped224" depart="76.91" type="ped_pedestrian">
        <walk from="497504176" to="5671197#0"/>
    </person>
    <person id="ped225" depart="77.26" type="ped_pedestrian">
        <walk from="495547964#1" to="531733214"/>
    </person>
    <person id="ped226" depart="77.60" type="ped_pedestrian">
        <walk from="430380400#9" to="22986671#1"/>
    </person>
    <person id="ped227" depart="77.94" type="ped_pedestrian">
        <walk from="420888146#1" to="495946403#3"/>
    </person>
    <person id="ped228" depart="78.29" type="ped_pedestrian">
        <walk from="607091411#0" to="-467222812#4"/>
    </person>
    <person id="ped229" depart="78.63" type="ped_pedestrian">
        <walk from="566928439#1" to="46160330#1"/>
    </person>
    <person id="ped230" depart="78.97" type="ped_pedestrian">
        <walk from="371124205" to="109294069#8"/>
    </person>
    <person id="ped231" depart="79.32" type="ped_pedestrian">
        <walk from="46610729" to="384174888#0"/>
    </person>
    <person id="ped232" depart="79.66" type="ped_pedestrian">
        <walk from="46350695" to="557625477#1"/>
    </person>
    <person id="ped233" depart="80.00" type="ped_pedestrian">
        <walk from="5670836#0" to="619213774#1"/>
    </person>
    <person id="ped234" depart="80.35" type="ped_pedestrian">
        <walk from="413052855" to="129834316#5"/>
    </person>