<?xml version="1.0" encoding="UTF-8"?>
<!-- generated on 2019-02-22 14:27:16.150804 by $Id$
  options: 
-->
<routes xmlns:xsi="http://www.w3.org/2001/XMLSchema-instance" xsi:noNamespaceSchemaLocation="http://sumo.dlr.de/xsd/routes_file.xsd">
    <vType id="ped_pedestrian" vClass="pedestrian"/>
    <person id="ped0" depart="0.00" type="ped_pedestrian">
        <walk from="436899191#0" to="-226041032#4"/>
    </person>
    <person id="ped1" depart="0.62" type="ped_pedestrian">
        <walk from="153232761#2" to="125480074"/>
    </person>
    <person id="ped2" depart="1.23" type="ped_pedestrian">
        <walk from="458452177#5" to="436899201"/>
    </person>
    <person id="ped3" depart="1.85" type="ped_pedestrian">
        <walk from="5669664#0" to="-499172074#4"/>
    </person>
    <person id="ped4" depart="2.47" type="ped_pedestrian">
        <walk from="308322447#3" to="-22898530#2"/>
    </person>
    <person id="ped5" depart="3.08" type="ped_pedestrian">
        <walk from="113049826#2" to="377577999#0"/>
    </person>
    <person id="ped6" depart="3.70" type="ped_pedestrian">
        <walk from="-226041032#4" to="113049816#1"/>
    </person>
    <person id="ped7" depart="4.31" type="ped_pedestrian">
        <walk from="436899194#1" to="427087539"/>
    </person>
    <person id="ped8" depart="4.93" type="ped_pedestrian">
        <walk from="113049826#3" to="436899177#1"/>
    </person>
    <person id="ped9" depart="5.55" type="ped_pedestrian">
        <walk from="510806161" to="-196116976#10"/>
    </person>
    <person id="ped10" depart="6.16" type="ped_pedestrian">
        <walk from="505582406" to="439933933"/>
    </person>
    <person id="ped11" depart="6.78" type="ped_pedestrian">
        <walk from="196116976#5" to="113049805#2"/>
    </person>
    <person id="ped12" depart="7.40" type="ped_pedestrian">
        <walk from="587256611#1" to="196116976#3"/>
    </person>
    <person id="ped13" depart="8.01" type="ped_pedestrian">
        <walk from="-5670139" to="-5670253#0"/>
    </person>
    <person id="ped14" depart="8.63" type="ped_pedestrian">
        <walk from="510806198" to="436899182#0"/>
    </person>
    <person id="ped15" depart="9.24" type="ped_pedestrian">
        <walk from="510806160" to="458452177#2"/>
    </person>
    <person id="ped16" depart="9.86" type="ped_pedestrian">
        <walk from="427087527" to="618990022#12"/>
    </person>
    <person id="ped17" depart="10.48" type="ped_pedestrian">
        <walk from="248632174#1" to="427087542"/>
    </person>
    <person id="ped18" depart="11.09" type="ped_pedestrian">
        <walk from="510806172" to="436899187#1"/>
    </person>
    <person id="ped19" depart="11.71" type="ped_pedestrian">
        <walk from="510806206" to="427670441"/>
    </person>
    <person id="ped20" depart="12.33" type="ped_pedestrian">
        <walk from="45782065#0" to="-420890023"/>
    </person>
    <person id="ped21" depart="12.94" type="ped_pedestrian">
        <walk from="128578942#1" to="153232761#8"/>
    </person>
    <person id="ped22" depart="13.56" type="ped_pedestrian">
        <walk from="-499172074#10" to="128578942#3"/>
    </person>
    <person id="ped23" depart="14.17" type="ped_pedestrian">
        <walk from="-5670874#0" to="153232761#3"/>
    </person>
    <person id="ped24" depart="14.79" type="ped_pedestrian">
        <walk from="436899190#1" to="22898530#2"/>
    </person>
    <person id="ped25" depart="15.41" type="ped_pedestrian">
        <walk from="22898530#4" to="113049823"/>
    </person>
    <person id="ped26" depart="16.02" type="ped_pedestrian">
        <walk from="153232761#11" to="5672951#1"/>
    </person>
    <person id="ped27" depart="16.64" type="ped_pedestrian">
        <walk from="436899194#0" to="436899184#0"/>
    </person>
    <person id="ped28" depart="17.26" type="ped_pedestrian">
        <walk from="113049808#1" to="458452177#2"/>
    </person>
    <person id="ped29" depart="17.87" type="ped_pedestrian">
        <walk from="113049807#1" to="248632174#1"/>
    </person>
    <person id="ped30" depart="18.49" type="ped_pedestrian">
        <walk from="661047622" to="436899191#0"/>
    </person>
    <person id="ped31" depart="19.10" type="ped_pedestrian">
        <walk from="427087548" to="436899206#1"/>
    </person>
    <person id="ped32" depart="19.72" type="ped_pedestrian">
        <walk from="510806195" to="496989355#1"/>
    </person>
    <person id="ped33" depart="20.34" type="ped_pedestrian">
        <walk from="128578942#1" to="-22898530#3"/>
    </person>
    <person id="ped34" depart="20.95" type="ped_pedestrian">
        <walk from="186202420#0" to="153232761#11"/>
    </person>
    <person id="ped35" depart="21.57" type="ped_pedestrian">
        <walk from="113049824#0" to="569345537#4"/>
    </person>
    <person id="ped36" depart="22.19" type="ped_pedestrian">
        <walk from="514341011#3" to="162154228"/>
    </person>
    <person id="ped37" depart="22.80" type="ped_pedestrian">
        <walk from="436899194#3" to="259882488"/>
    </person>
    <person id="ped38" depart="23.42" type="ped_pedestrian">
        <walk from="5670874#0" to="329988122#1"/>
    </person>
    <person id="ped39" depart="24.04" type="ped_pedestrian">
        <walk from="153232761#10" to="128580948"/>
    </person>
    <person id="ped40" depart="24.65" type="ped_pedestrian">
        <walk from="427087549" to="153232761#1"/>
    </person>
    <person id="ped41" depart="25.27" type="ped_pedestrian">
        <walk from="435347263" to="5670139"/>
    </person>
    <person id="ped42" depart="25.88" type="ped_pedestrian">
        <walk from="259888551" to="113049826#2"/>
    </person>
    <person id="ped43" depart="26.50" type="ped_pedestrian">
        <walk from="663543997" to="377577999#2"/>
    </person>
    <person id="ped44" depart="27.12" type="ped_pedestrian">
        <walk from="-505582406" to="-439933933"/>
    </person>
    <person id="ped45" depart="27.73" type="ped_pedestrian">
        <walk from="-5672752#1" to="436899189#0"/>
    </person>
    <person id="ped46" depart="28.35" type="ped_pedestrian">
        <walk from="499172074#11" to="308322447#3"/>
    </person>
    <person id="ped47" depart="28.97" type="ped_pedestrian">
        <walk from="-477823038" to="248632175#0"/>
    </person>
    <person id="ped48" depart="29.58" type="ped_pedestrian">
        <walk from="663543997" to="422298615#1"/>
    </person>
    <person id="ped49" depart="30.20" type="ped_pedestrian">
        <walk from="618990022#12" to="510806206"/>
    </person>
    <person id="ped50" depart="30.81" type="ped_pedestrian">
        <walk from="-196116976#4" to="458448243#0"/>
    </person>
    <person id="ped51" depart="31.43" type="ped_pedestrian">
        <walk from="436899206#0" to="427087527"/>
    </person>
    <person id="ped52" depart="32.05" type="ped_pedestrian">
        <walk from="153232761#11" to="436899191#0"/>
    </person>
    <person id="ped53" depart="32.66" type="ped_pedestrian">
        <walk from="-570158316" to="31292684"/>
    </person>
    <person id="ped54" depart="33.28" type="ped_pedestrian">
        <walk from="324118558" to="587256610"/>
    </person>
    <person id="ped55" depart="33.90" type="ped_pedestrian">
        <walk from="514341011#3" to="153232761#1"/>
    </person>
    <person id="ped56" depart="34.51" type="ped_pedestrian">
        <walk from="377577994#0" to="113049808#4"/>
    </person>
    <person id="ped57" depart="35.13" type="ped_pedestrian">
        <walk from="5670873#1" to="514341011#1"/>
    </person>
    <person id="ped58" depart="35.74" type="ped_pedestrian">
        <walk from="162138628#1" to="436899190#2"/>
    </person>
    <person id="ped59" depart="36.36" type="ped_pedestrian">
        <walk from="436899184#0" to="113049805#1"/>
    </person>
    <person id="ped60" depart="36.98" type="ped_pedestrian">
        <walk from="477823038" to="427087530"/>
    </person>
    <person id="ped61" depart="37.59" type="ped_pedestrian">
        <walk from="496989355#3" to="422298615#4"/>
    </person>
    <person id="ped62" depart="38.21" type="ped_pedestrian">
        <walk from="-195743152#0" to="195743336#1"/>
    </person>
    <person id="ped63" depart="38.83" type="ped_pedestrian">
        <walk from="-226041032#1" to="5672752#0"/>
    </person>
    <person id="ped64" depart="39.44" type="ped_pedestrian">
        <walk from="514341011#4" to="510806179"/>
    </person>
    <person id="ped65" depart="40.06" type="ped_pedestrian">
        <walk from="162138628#5" to="-458448242#0"/>
    </person>
    <person id="ped66" depart="40.67" type="ped_pedestrian">
        <walk from="514341011#4" to="587256608#1"/>
    </person>
    <person id="ped67" depart="41.29" type="ped_pedestrian">
        <walk from="-499172074#4" to="330748501#1"/>
    </person>
    <person id="ped68" depart="41.91" type="ped_pedestrian">
        <walk from="-496986969#1" to="477823038"/>
    </person>
    <person id="ped69" depart="42.52" type="ped_pedestrian">
        <walk from="496986969#1" to="109269756#3"/>
    </person>
    <person id="ped70" depart="43.14" type="ped_pedestrian">
        <walk from="330748491#0" to="427087542"/>
    </person>
    <person id="ped71" depart="43.76" type="ped_pedestrian">
        <walk from="153232761#10" to="514341011#2"/>
    </person>
    <person id="ped72" depart="44.37" type="ped_pedestrian">
        <walk from="308322447#3" to="113049824#0"/>
    </person>
    <person id="ped73" depart="44.99" type="ped_pedestrian">
        <walk from="427087530" to="458452177#2"/>
    </person>
    <person id="ped74" depart="45.60" type="ped_pedestrian">
        <walk from="113049816#2" to="162138628#6"/>
    </person>
    <person id="ped75" depart="46.22" type="ped_pedestrian">
        <walk from="661047628" to="436899194#1"/>
    </person>
    <person id="ped76" depart="46.84" type="ped_pedestrian">
        <walk from="31292685#0" to="385460486"/>
    </person>
    <person id="ped77" depart="47.45" type="ped_pedestrian">
        <walk from="109269751" to="125480074"/>
    </person>
    <person id="ped78" depart="48.07" type="ped_pedestrian">
        <walk from="196116976#3" to="435347264#1"/>
    </person>
    <person id="ped79" depart="48.69" type="ped_pedestrian">
        <walk from="128578942#2" to="113049826#2"/>
    </person>
    <person id="ped80" depart="49.30" type="ped_pedestrian">
        <walk from="-497258109" to="436899189#1"/>
    </person>
    <person id="ped81" depart="49.92" type="ped_pedestrian">
        <walk from="128578942#1" to="5670348#0"/>
    </person>
    <person id="ped82" depart="50.54" type="ped_pedestrian">
        <walk from="510806206" to="-497258109"/>
    </person>
    <person id="ped83" depart="51.15" type="ped_pedestrian">
        <walk from="128578958" to="436899199#1"/>
    </person>
    <person id="ped84" depart="51.77" type="ped_pedestrian">
        <walk from="113049824#1" to="109269756#4"/>
    </person>
    <person id="ped85" depart="52.38" type="ped_pedestrian">
        <walk from="5672951#1" to="427670438"/>
    </person>
    <person id="ped86" depart="53.00" type="ped_pedestrian">
        <walk from="330748490#1" to="497258109"/>
    </person>
    <person id="ped87" depart="53.62" type="ped_pedestrian">
        <walk from="510806160" to="113049811#3"/>
    </person>
    <person id="ped88" depart="54.23" type="ped_pedestrian">
        <walk from="-5670253#1" to="31292683"/>
    </person>
    <person id="ped89" depart="54.85" type="ped_pedestrian">
        <walk from="308322447#3" to="329988123#1"/>
    </person>
    <person id="ped90" depart="55.47" type="ped_pedestrian">
        <walk from="458452177#2" to="436899200#1"/>
    </person>
    <person id="ped91" depart="56.08" type="ped_pedestrian">
        <walk from="618990022#8" to="-5670253#1"/>
    </person>
    <person id="ped92" depart="56.70" type="ped_pedestrian">
        <walk from="29317327#0" to="196116976#5"/>
    </person>
    <person id="ped93" depart="57.31" type="ped_pedestrian">
        <walk from="510806206" to="128582376#0"/>
    </person>
    <person id="ped94" depart="57.93" type="ped_pedestrian">
        <walk from="113049811#3" to="321166648"/>
    </person>
    <person id="ped95" depart="58.55" type="ped_pedestrian">
        <walk from="308322447#3" to="153232761#4"/>
    </person>
    <person id="ped96" depart="59.16" type="ped_pedestrian">
        <walk from="128582376#1" to="5671574#1"/>
    </person>
    <person id="ped97" depart="59.78" type="ped_pedestrian">
        <walk from="31292686#1" to="510806206"/>
    </person>
    <person id="ped98" depart="60.40" type="ped_pedestrian">
        <walk from="427087542" to="-458448233"/>
    </person>
    <person id="ped99" depart="61.01" type="ped_pedestrian">
        <walk from="91383966#1" to="510806183"/>
    </person>
    <person id="ped100" depart="61.63" type="ped_pedestrian">
        <walk from="618990022#11" to="5672290"/>
    </person>
    <person id="ped101" depart="62.24" type="ped_pedestrian">
        <walk from="510806198" to="113049807#2"/>
    </person>
    <person id="ped102" depart="62.86" type="ped_pedestrian">
        <walk from="330748501#1" to="113049824#1"/>
    </person>
    <person id="ped103" depart="63.48" type="ped_pedestrian">
        <walk from="266861403" to="-458448243#0"/>
    </person>
    <person id="ped104" depart="64.09" type="ped_pedestrian">
        <walk from="248632174#1" to="618990022#8"/>
    </person>
    <person id="ped105" depart="64.71" type="ped_pedestrian">
        <walk from="153232761#10" to="497258108#1"/>
    </person>
    <person id="ped106" depart="65.33" type="ped_pedestrian">
        <walk from="324118558" to="308322447#3"/>
    </person>
    <person id="ped107" depart="65.94" type="ped_pedestrian">
        <walk from="587256611#1" to="663543997"/>
    </person>
    <person id="ped108" depart="66.56" type="ped_pedestrian">
        <walk from="427087545" to="458448242#1"/>
    </person>
    <person id="ped109" depart="67.17" type="ped_pedestrian">
        <walk from="113049805#1" to="162138628#0"/>
    </person>
    <person id="ped110" depart="67.79" type="ped_pedestrian">
        <walk from="618990022#11" to="435346675#1"/>
    </person>
    <person id="ped111" depart="68.41" type="ped_pedestrian">
        <walk from="427087531" to="460065822#0"/>
    </person>
    <person id="ped112" depart="69.02" type="ped_pedestrian">
        <walk from="-458448242#0" to="435347263"/>
    </person>
    <person id="ped113" depart="69.64" type="ped_pedestrian">
        <walk from="377577994#1" to="510806200"/>
    </person>
    <person id="ped114" depart="70.26" type="ped_pedestrian">
        <walk from="113049805#3" to="587256612#1"/>
    </person>
    <person id="ped115" depart="70.87" type="ped_pedestrian">
        <walk from="-499172074#18" to="113049811#1"/>
    </person>
    <person id="ped116" depart="71.49" type="ped_pedestrian">
        <walk from="436899178#1" to="436899200#1"/>
    </person>
    <person id="ped117" depart="72.11" type="ped_pedestrian">
        <walk from="128578942#4" to="109269751"/>
    </person>
    <person id="ped118" depart="72.72" type="ped_pedestrian">
        <walk from="5669353" to="128580948"/>
    </person>
    <person id="ped119" depart="73.34" type="ped_pedestrian">
        <walk from="436899178#1" to="436899187#1"/>
    </person>
    <person id="ped120" depart="73.95" type="ped_pedestrian">
        <walk from="308322447#2" to="435347263"/>
    </person>
    <person id="ped121" depart="74.57" type="ped_pedestrian">
        <walk from="420899372" to="5672951#1"/>
    </person>
    <person id="ped122" depart="75.19" type="ped_pedestrian">
        <walk from="113049819#0" to="458448241#1"/>
    </person>
    <person id="ped123" depart="75.80" type="ped_pedestrian">
        <walk from="128578958" to="259882488"/>
    </person>
    <person id="ped124" depart="76.42" type="ped_pedestrian">
        <walk from="436899200#0" to="162138628#1"/>
    </person>
    <person id="ped125" depart="77.04" type="ped_pedestrian">
        <walk from="186202420#0" to="46538371#0"/>
    </person>
    <person id="ped126" depart="77.65" type="ped_pedestrian">
        <walk from="-497258109" to="329988122#1"/>
    </person>
    <person id="ped127" depart="78.27" type="ped_pedestrian">
        <walk from="91383966#1" to="663543997"/>
    </person>
    <person id="ped128" depart="78.88" type="ped_pedestrian">
        <walk from="-499172074#0" to="113049824#1"/>
    </person>
    <person id="ped129" depart="79.50" type="ped_pedestrian">
        <walk from="153232761#10" to="5672951#0"/>
    </person>
    <person id="ped130" depart="80.12" type="ped_pedestrian">
        <walk from="514341011#5" to="514341011#5"/>
    </person>
    <person id="ped131" depart="80.73" type="ped_pedestrian">
        <walk from="22898530#4" to="113049805#3"/>
    </person>
    <person id="ped132" depart="81.35" type="ped_pedestrian">
        <walk from="510806181" to="45782065#0"/>
    </person>
    <person id="ped133" depart="81.97" type="ped_pedestrian">
        <walk from="436899184#1" to="618990022#9"/>
    </person>
    <person id="ped134" depart="82.58" type="ped_pedestrian">
        <walk from="436899194#3" to="-196116976#2"/>
    </person>
    <person id="ped135" depart="83.20" type="ped_pedestrian">
        <walk from="510806164" to="162138628#1"/>
    </person>
    <person id="ped136" depart="83.81" type="ped_pedestrian">
        <walk from="436899197#1" to="569345537#0"/>
    </person>
    <person id="ped137" depart="84.43" type="ped_pedestrian">
        <walk from="113049800" to="-663543997"/>
    </person>
    <person id="ped138" depart="85.05" type="ped_pedestrian">
        <walk from="-5672752#0" to="427087544"/>
    </person>
    <person id="ped139" depart="85.66" type="ped_pedestrian">
        <walk from="153232761#13" to="436899182#0"/>
    </person>
    <person id="ped140" depart="86.28" type="ped_pedestrian">
        <walk from="458448242#1" to="113049819#0"/>
    </person>
    <person id="ped141" depart="86.90" type="ped_pedestrian">
        <walk from="436899190#0" to="153232761#10"/>
    </person>
    <person id="ped142" depart="87.51" type="ped_pedestrian">
        <walk from="330748502#1" to="5670348#0"/>
    </person>
    <person id="ped143" depart="88.13" type="ped_pedestrian">
        <walk from="510806197" to="-5670139"/>
    </person>
    <person id="ped144" depart="88.74" type="ped_pedestrian">
        <walk from="308322447#3" to="153232761#3"/>
    </person>
    <person id="ped145" depart="89.36" type="ped_pedestrian">
        <walk from="-196116976#0" to="496986970#1"/>
    </person>
    <person id="ped146" depart="89.98" type="ped_pedestrian">
        <walk from="436899190#2" to="153232761#1"/>
    </person>
    <person id="ped147" depart="90.59" type="ped_pedestrian">
        <walk from="460065820" to="427087542"/>
    </person>
    <person id="ped148" depart="91.21" type="ped_pedestrian">
        <walk from="308322448#1" to="-196116976#2"/>
    </person>
    <person id="ped149" depart="91.83" type="ped_pedestrian">
        <walk from="-499172074#1" to="514341011#6"/>
    </person>
    <person id="ped150" depart="92.44" type="ped_pedestrian">
        <walk from="5670348#0" to="427087539"/>
    </person>
    <person id="ped151" depart="93.06" type="ped_pedestrian">
        <walk from="510806181" to="435346675#2"/>
    </person>
    <person id="ped152" depart="93.67" type="ped_pedestrian">
        <walk from="113049804" to="109269756#2"/>
    </person>
    <person id="ped153" depart="94.29" type="ped_pedestrian">
        <walk from="162138628#5" to="5670253#0"/>
    </person>
    <person id="ped154" depart="94.91" type="ped_pedestrian">
        <walk from="499172074#2" to="510806206"/>
    </person>
    <person id="ped155" depart="95.52" type="ped_pedestrian">
        <walk from="5670253#0" to="113049823"/>
    </person>
    <person id="ped156" depart="96.14" type="ped_pedestrian">
        <walk from="128582376#1" to="-5670874#1"/>
    </person>
    <person id="ped157" depart="96.76" type="ped_pedestrian">
        <walk from="497258108#0" to="541350711#0"/>
    </person>
    <person id="ped158" depart="97.37" type="ped_pedestrian">
        <walk from="29317327#1" to="436899187#2"/>
    </person>
    <person id="ped159" depart="97.99" type="ped_pedestrian">
        <walk from="113049805#1" to="5672752#1"/>
    </person>
    <person id="ped160" depart="98.61" type="ped_pedestrian">
        <walk from="510806208" to="618990022#5"/>
    </person>
    <person id="ped161" depart="99.22" type="ped_pedestrian">
        <walk from="510806161" to="514341011#6"/>
    </person>
    <person id="ped162" depart="99.84" type="ped_pedestrian">
        <walk from="-226041032#4" to="458452177#5"/>
    </person>
    <person id="ped163" depart="100.45" type="ped_pedestrian">
        <walk from="196116976#0" to="5672752#1"/>
    </person>
    <person id="ped164" depart="101.07" type="ped_pedestrian">
        <walk from="499172074#9" to="510806207"/>
    </person>
    <person id="ped165" depart="101.69" type="ped_pedestrian">
        <walk from="510806161" to="153232761#11"/>
    </person>
    <person id="ped166" depart="102.30" type="ped_pedestrian">
        <walk from="499172074#0" to="-5672752#0"/>
    </person>
    <person id="ped167" depart="102.92" type="ped_pedestrian">
        <walk from="514341011#2" to="510806205"/>
    </person>
    <person id="ped168" depart="103.54" type="ped_pedestrian">
        <walk from="113049826#3" to="510806164"/>
    </person>
    <person id="ped169" depart="104.15" type="ped_pedestrian">
        <walk from="329988122#2" to="162138628#4"/>
    </person>
    <person id="ped170" depart="104.77" type="ped_pedestrian">
        <walk from="499172074#2" to="128578942#0"/>
    </person>
    <person id="ped171" depart="105.38" type="ped_pedestrian">
        <walk from="-226041032#3" to="113049814#0"/>
    </person>
    <person id="ped172" depart="106.00" type="ped_pedestrian">
        <walk from="196116975#0" to="510806207"/>
    </person>
    <person id="ped173" depart="106.62" type="ped_pedestrian">
        <walk from="618990022#10" to="153232761#4"/>
    </person>
    <person id="ped174" depart="107.23" type="ped_pedestrian">
        <walk from="436899191#0" to="266861403"/>
    </person>
    <person id="ped175" depart="107.85" type="ped_pedestrian">
        <walk from="618990022#7" to="427087527"/>
    </person>
    <person id="ped176" depart="108.47" type="ped_pedestrian">
        <walk from="569345537#0" to="-663543997"/>
    </person>
    <person id="ped177" depart="109.08" type="ped_pedestrian">
        <walk from="618990022#11" to="113049808#4"/>
    </person>
    <person id="ped178" depart="109.70" type="ped_pedestrian">
        <walk from="587260622" to="153232761#10"/>
    </person>
    <person id="ped179" depart="110.31" type="ped_pedestrian">
        <walk from="-5672752#0" to="31292684"/>
    </person>
    <person id="ped180" depart="110.93" type="ped_pedestrian">
        <walk from="458452177#1" to="162154228"/>
    </person>
    <person id="ped181" depart="111.55" type="ped_pedestrian">
        <walk from="436899182#1" to="382740985#0"/>
    </person>
    <person id="ped182" depart="112.16" type="ped_pedestrian">
        <walk from="248632177#1" to="427670441"/>
    </person>
    <person id="ped183" depart="112.78" type="ped_pedestrian">
        <walk from="153232751" to="45782065#2"/>
    </person>
    <person id="ped184" depart="113.40" type="ped_pedestrian">
        <walk from="-195743152#0" to="5672290"/>
    </person>
    <person id="ped185" depart="114.01" type="ped_pedestrian">
        <walk from="427087530" to="458448243#0"/>
    </person>
    <person id="ped186" depart="114.63" type="ped_pedestrian">
        <walk from="460065820" to="436899199#1"/>
    </person>
    <person id="ped187" depart="115.24" type="ped_pedestrian">
        <walk from="22898530#2" to="-496986969#1"/>
    </person>
    <person id="ped188" depart="115.86" type="ped_pedestrian">
        <walk from="436899198" to="196116975#4"/>
    </person>
    <person id="ped189" depart="116.48" type="ped_pedestrian">
        <walk from="162154228" to="510806198"/>
    </person>
    <person id="ped190" depart="117.09" type="ped_pedestrian">
        <walk from="458448243#0" to="162138628#2"/>
    </person>
    <person id="ped191" depart="117.71" type="ped_pedestrian">
        <walk from="162138628#5" to="29317327#2"/>
    </person>
    <person id="ped192" depart="118.33" type="ped_pedestrian">
        <walk from="29317327#0" to="162138628#0"/>
    </person>
    <person id="ped193" depart="118.94" type="ped_pedestrian">
        <walk from="109269756#2" to="308322447#2"/>
    </person>
    <person id="ped194" depart="119.56" type="ped_pedestrian">
        <walk from="569345537#3" to="436899201"/>
    </person>
    <person id="ped195" depart="120.18" type="ped_pedestrian">
        <walk from="5670253#1" to="436899187#0"/>
    </person>
    <person id="ped196" depart="120.79" type="ped_pedestrian">
        <walk from="162138628#2" to="427087540"/>
    </person>
    <person id="ped197" depart="121.41" type="ped_pedestrian">
        <walk from="-195743152#0" to="153232761#7"/>
    </person>
    <person id="ped198" depart="122.02" type="ped_pedestrian">
        <walk from="308322448#2" to="435346675#1"/>
    </person>
    <person id="ped199" depart="122.64" type="ped_pedestrian">
        <walk from="436899194#3" to="329988123#1"/>
    </person>
    <person id="ped200" depart="123.26" type="ped_pedestrian">
        <walk from="31292686#0" to="113049824#1"/>
    </person>
    <person id="ped201" depart="123.87" type="ped_pedestrian">
        <walk from="330748490#1" to="5670253#1"/>
    </person>
    <person id="ped202" depart="124.49" type="ped_pedestrian">
        <walk from="499172074#2" to="113049808#1"/>
    </person>
    <person id="ped203" depart="125.11" type="ped_pedestrian">
        <walk from="-499172074#4" to="382740985#3"/>
    </person>
    <person id="ped204" depart="125.72" type="ped_pedestrian">
        <walk from="436899190#0" to="196116976#1"/>
    </person>
    <person id="ped205" depart="126.34" type="ped_pedestrian">
        <walk from="510806168" to="46538371#0"/>
    </person>
    <person id="ped206" depart="126.95" type="ped_pedestrian">
        <walk from="436899200#0" to="125480074"/>
    </person>
    <person id="ped207" depart="127.57" type="ped_pedestrian">
        <walk from="113049816#1" to="-226041032#4"/>
    </person>
    <person id="ped208" depart="128.19" type="ped_pedestrian">
        <walk from="128580948" to="330748491#0"/>
    </person>
    <person id="ped209" depart="128.80" type="ped_pedestrian">
        <walk from="510806198" to="-499172074#0"/>
    </person>
    <person id="ped210" depart="129.42" type="ped_pedestrian">
        <walk from="308322446" to="436899189#1"/>
    </person>
    <person id="ped211" depart="130.04" type="ped_pedestrian">
        <walk from="113049814#1" to="439801903"/>
    </person>
    <person id="ped212" depart="130.65" type="ped_pedestrian">
        <walk from="36930573#2" to="128580946#1"/>
    </person>
    <person id="ped213" depart="131.27" type="ped_pedestrian">
        <walk from="436899194#3" to="-196116976#10"/>
    </person>
    <person id="ped214" depart="131.88" type="ped_pedestrian">
        <walk from="46538371#0" to="496986970#1"/>
    </person>
    <person id="ped215" depart="132.50" type="ped_pedestrian">
        <walk from="-5672752#0" to="308322447#4"/>
    </person>
    <person id="ped216" depart="133.12" type="ped_pedestrian">
        <walk from="113049808#3" to="587256611#1"/>
    </person>
    <person id="ped217" depart="133.73" type="ped_pedestrian">
        <walk from="385460486" to="-458448233"/>
    </person>
    <person id="ped218" depart="134.35" type="ped_pedestrian">
        <walk from="128582376#0" to="510806198"/>
    </person>
    <person id="ped219" depart="134.97" type="ped_pedestrian">
        <walk from="329988122#0" to="499172074#5"/>
    </person>
    <person id="ped220" depart="135.58" type="ped_pedestrian">
        <walk from="436899199#0" to="618990022#9"/>
    </person>
    <person id="ped221" depart="136.20" type="ped_pedestrian">
        <walk from="436899178#1" to="587256609"/>
    </person>
    <person id="ped222" depart="136.81" type="ped_pedestrian">
        <walk from="5669664#0" to="436899185"/>
    </person>
    <person id="ped223" depart="137.43" type="ped_pedestrian">
        <walk from="458448243#0" to="377577999#0"/>
    </person>
    <person id="ped224" depart="138.05" type="ped_pedestrian">
        <walk from="510806179" to="427087540"/>
    </person>
    <person id="ped225" depart="138.66" type="ped_pedestrian">
        <walk from="5670139" to="460065821#1"/>
    </person>
    <person id="ped226" depart="139.28" type="ped_pedestrian">
        <walk from="330748491#0" to="153232761#0"/>
    </person>
    <person id="ped227" depart="139.90" type="ped_pedestrian">
        <walk from="128582376#0" to="436899190#2"/>
    </person>
    <person id="ped228" depart="140.51" type="ped_pedestrian">
        <walk from="496986969#1" to="420899372"/>
    </person>
    <person id="ped229" depart="141.13" type="ped_pedestrian">
        <walk from="436899187#4" to="153232761#2"/>
    </person>
    <person id="ped230" depart="141.74" type="ped_pedestrian">
        <walk from="-499172074#10" to="153232761#7"/>
    </person>
    <person id="ped231" depart="142.36" type="ped_pedestrian">
        <walk from="153232761#13" to="195743336#0"/>
    </person>
    <person id="ped232" depart="142.98" type="ped_pedestrian">
        <walk from="427087531" to="113049801#1"/>
    </person>
    <person id="ped233" depart="143.59" type="ped_pedestrian">
        <walk from="128578942#2" to="436899206#5"/>
    </person>
    <person id="ped234" depart="144.21" type="ped_pedestrian">