<?xml version="1.0" encoding="UTF-8"?>
<!-- generated on 2019-02-22 14:27:14.314269 by $Id$ via randomTrips.py
  options: 
-->
<routes xmlns:xsi="http://www.w3.org/2001/XMLSchema-instance" xsi:noNamespaceSchemaLocation="http://sumo.dlr.de/xsd/routes_file.xsd">
    <vType id="veh_passenger" vClass="passenger">
    </vType>
    <trip id="veh0" depart="0.00" departLane="best" from="496989355#3" to="-496986969#0" type="veh_passenger"/>
    <trip id="veh1" depart="1.28" departLane="best" from="5670253#0" to="5669664#0" type="veh_passenger"/>
    <trip id="veh2" depart="2.56" departLane="best" from="569345537#4" to="125480074" type="veh_passenger"/>
    <trip id="veh3" depart="3.85" departLane="best" from="324118558" to="-496986969#1" type="veh_passenger"/>
    <trip id="veh4" depart="5.13" departLane="best" from="196116975#0" to="496986970#0" type="veh_passenger"/>
    <trip id="veh5" depart="6.41" departLane="best" from="-496986969#0" to="196116976#6" type="veh_passenger"/>
    <trip id="veh6" depart="7.69" departLane="best" from="196116975#0" to="499172074#11" type="veh_passenger"/>
    <trip id="veh7" depart="8.98" departLane="best" from="5672290" to="-196116988#0" type="veh_passenger"/>
    <trip id="veh8" depart="10.26" departLane="best" from="618990022#3" to="382740985#3" type="veh_passenger"/>
    <trip id="veh9" depart="11.54" departLane="best" from="-5670139" to="186202420#0" type="veh_passenger"/>
    <trip id="veh11" depart="14.11" departLane="best" from="5672290" to="5670348#0" type="veh_passenger"/>
    <trip id="veh12" depart="15.39" departLane="best" from="308322447#1" to="497258109" type="veh_passenger"/>
    <trip id="veh13" depart="16.67" departLane="best" from="569345537#0" to="499172074#11" type="veh_passenger"/>
    <trip id="veh14" depart="17.95" departLane="best" from="541350711#0" to="-5670253#1" type="veh_passenger"/>
    <trip id="veh15" depart="19.24" departLane="best" from="196116975#4" to="308322447#1" type="veh_passenger"/>
    <trip id="veh16" depart="20.52" departLane="best" from="-5670139" to="226041032#0" type="veh_passenger"/>
    <trip id="veh17" depart="21.80" departLane="best" from="-5670139" to="308322446" type="veh_passenger"/>
    <trip id="veh18" depart="23.08" departLane="best" from="496989355#3" to="382740985#3" type="veh_passenger"/>
    <trip id="veh19" depart="24.37" departLane="best" from="308322446" to="196116976#6" type="veh_passenger"/>
    <trip id="veh20" depart="25.65" departLane="best" from="497258108#0" to="499172074#3" type="veh_passenger"/>
    <trip id="veh21" depart="26.93" departLane="best" from="618990022#9" to="505582406" type="veh_passenger"/>
    <trip id="veh22" depart="28.21" departLane="best" from="46525065#0" to="5670139" type="veh_passenger"/>
    <trip id="veh23" depart="29.50" departLane="best" from="196116975#4" to="-496986969#1" type="veh_passenger"/>
    <trip id="veh24" depart="30.78" departLane="best" from="198924778#1" to="22898530#3" type="veh_passenger"/>
    <trip id="veh25" depart="32.06" departLane="best" from="196116975#0" to="618990022#7" type="veh_passenger"/>
    <trip id="veh26" depart="33.34" departLane="best" from="569345537#0" to="308322448#1" type="veh_passenger"/>
    <trip id="veh27" depart="34.63" departLane="best" from="497258109" to="422298615#1" type="veh_passenger"/>
    <trip id="veh28" depart="35.91" departLane="best" from="196117083" to="226041032#4" type="veh_passenger"/>
    <trip id="veh29" depart="37.19" departLane="best" from="46525065#0" to="22898530#2" type="veh_passenger"/>
    <trip id="veh30" depart="38.47" departLane="best" from="46583189#1" to="569345537#4" type="veh_passenger"/>
    <trip id="veh31" depart="39.76" departLane="best" from="308322447#4" to="196117083" type="veh_passenger"/>
    <trip id="veh32" depart="41.04" departLane="best" from="-5670139" to="505582406" type="veh_passenger"/>
    <trip id="veh34" depart="43.60" departLane="best" from="-505582406" to="420899373" type="veh_passenger"/>
    <trip id="veh35" depart="44.89" departLane="best" from="663543997" to="496989355#3" type="veh_passenger"/>
    <trip id="veh36" depart="46.17" departLane="best" from="618990022#6" to="5672951#1" type="veh_passenger"/>
    <trip id="veh37" depart="47.45" departLane="best" from="-196116988#0" to="5670253#0" type="veh_passenger"/>
    <trip id="veh38" depart="48.73" departLane="best" from="-5670253#0" to="460065822#0" type="veh_passenger"/>
    <trip id="veh39" depart="50.02" departLane="best" from="324118558" to="618990022#8" type="veh_passenger"/>
    <trip id="veh40" depart="51.30" departLane="best" from="569345537#0" to="22898530#2" type="veh_passenger"/>
    <trip id="veh41" depart="52.58" departLane="best" from="422298615#4" to="196116976#5" type="veh_passenger"/>
    <trip id="veh42" depart="53.86" departLane="best" from="618990022#0" to="5672951#1" type="veh_passenger"/>
    <trip id="veh43" depart="55.14" departLane="best" from="198924778#0" to="505582406" type="veh_passenger"/>
    <trip id="veh45" depart="57.71" departLane="best" from="5670874#1" to="496989355#3" type="veh_passenger"/>
    <trip id="veh46" depart="58.99" departLane="best" from="-195743152#0" to="324118554#1" type="veh_passenger"/>
    <trip id="veh47" depart="60.27" departLane="best" from="569345537#0" to="5671574#1" type="veh_passenger"/>
    <trip id="veh48" depart="61.56" departLane="best" from="569345537#0" to="618990022#7" type="veh_passenger"/>
    <trip id="veh49" depart="62.84" departLane="best" from="-505582406" to="5670348#1" type="veh_passenger"/>
    <trip id="veh50" depart="64.12" departLane="best" from="5670874#0" to="195743336#2" type="veh_passenger"/>
    <trip id="veh51" depart="65.40" departLane="best" from="420899372" to="497258109" type="veh_passenger"/>
    <trip id="veh52" depart="66.69" departLane="best" from="196117083" to="5672951#1" type="veh_passenger"/>
    <trip id="veh53" depart="67.97" departLane="best" from="324118558" to="196116976#6" type="veh_passenger"/>
    <trip id="veh54" depart="69.25" departLane="best" from="46525065#0" to="5670348#0" type="veh_passenger"/>
    <trip id="veh55" depart="70.53" departLane="best" from="196116975#0" to="308322448#1" type="veh_passenger"/>
    <trip id="veh56" depart="71.82" departLane="best" from="324118558" to="496989355#0" type="veh_passenger"/>
    <trip id="veh57" depart="73.10" departLane="best" from="-5670253#1" to="196117092" type="veh_passenger"/>
    <trip id="veh58" depart="74.38" departLane="best" from="22898530#0" to="499172074#11" type="veh_passenger"/>
    <trip id="veh59" depart="75.66" departLane="best" from="196116975#4" to="618990022#10" type="veh_passenger"/>
    <trip id="veh60" depart="76.95" departLane="best" from="569345537#0" to="-5670874#2" type="veh_passenger"/>
    <trip id="veh61" depart="78.23" departLane="best" from="196116976#0" to="541350711#1" type="veh_passenger"/>
    <trip id="veh62" depart="79.51" departLane="best" from="196116975#0" to="195743336#2" type="veh_passenger"/>
    <trip id="veh63" depart="80.79" departLane="best" from="618990022#10" to="499172074#11" type="veh_passenger"/>
    <trip id="veh64" depart="82.08" departLane="best" from="5672290" to="196116976#6" type="veh_passenger"/>
    <trip id="veh65" depart="83.36" departLane="best" from="-5670139" to="460065821#1" type="veh_passenger"/>
    <trip id="veh66" depart="84.64" departLane="best" from="324118558" to="46538371#3" type="veh_passenger"/>
    <trip id="veh67" depart="85.92" departLane="best" from="618990022#8" to="186202420#1" type="veh_passenger"/>
    <trip id="veh68" depart="87.21" departLane="best" from="308322448#1" to="382740985#3" type="veh_passenger"/>
    <trip id="veh69" depart="88.49" departLane="best" from="195743336#1" to="46538371#3" type="veh_passenger"/>
    <trip id="veh70" depart="89.77" departLane="best" from="324118558" to="308322446" type="veh_passenger"/>
    <trip id="veh71" depart="91.05" departLane="best" from="324118558" to="5672951#1" type="veh_passenger"/>
    <trip id="veh72" depart="92.34" departLane="best" from="46525065#0" to="-5670253#1" type="veh_passenger"/>
    <trip id="veh73" depart="93.62" departLane="best" from="663543997" to="5671574#1" type="veh_passenger"/>
    <trip id="veh74" depart="94.90" departLane="best" from="569345537#0" to="196116976#1" type="veh_passenger"/>
    <trip id="veh76" depart="97.47" departLane="best" from="308322448#1" to="-5670874#1" type="veh_passenger"/>
    <trip id="veh77" depart="98.75" departLane="best" from="196117083" to="5670874#0" type="veh_passenger"/>
    <trip id="veh78" depart="100.03" departLane="best" from="324118558" to="460065820" type="veh_passenger"/>
    <trip id="veh79" depart="101.31" departLane="best" from="618990022#3" to="91383966#1" type="veh_passenger"/>
    <trip id="veh80" depart="102.59" departLane="best" from="46525065#0" to="5670253#0" type="veh_passenger"/>
    <trip id="veh81" depart="103.88" departLane="best" from="-5672752#1" to="308322447#2" type="veh_passenger"/>
    <trip id="veh82" depart="105.16" departLane="best" from="618990022#6" to="499172074#11" type="veh_passenger"/>
    <trip id="veh83" depart="106.44" departLane="best" from="46525065#0" to="5670348#1" type="veh_passenger"/>
    <trip id="veh84" depart="107.72" departLane="best" from="-505582406" to="499172074#11" type="veh_passenger"/>
    <trip id="veh85" depart="109.01" departLane="best" from="-5670139" to="196116976#6" type="veh_passenger"/>
    <trip id="veh86" depart="110.29" departLane="best" from="496986969#0" to="5669664#0" type="veh_passenger"/>
    <trip id="veh87" depart="111.57" departLane="best" from="196116976#0" to="195743336#2" type="veh_passenger"/>
    <trip id="veh88" depart="112.85" departLane="best" from="496986969#0" to="499172074#9" type="veh_passenger"/>
    <trip id="veh89" depart="114.14" departLane="best" from="324118554#1" to="499172074#11" type="veh_passenger"/>
    <trip id="veh90" depart="115.42" departLane="best" from="196116975#0" to="5670253#0" type="veh_passenger"/>
    <trip id="veh91" depart="116.70" departLane="best" from="196116976#0" to="422298615#1" type="veh_passenger"/>
    <trip id="veh92" depart="117.98" departLane="best" from="499172074#1" to="308322447#3" type="veh_passenger"/>
    <trip id="veh93" depart="119.27" departLane="best" from="198924778#1" to="5670348#1" type="veh_passenger"/>
    <trip id="veh94" depart="120.55" departLane="best" from="-505582406" to="46538371#3" type="veh_passenger"/>
    <trip id="veh95" depart="121.83" departLane="best" from="569345537#0" to="5672951#1" type="veh_passenger"/>
    <trip id="veh96" depart="123.11" departLane="best" from="5672752#0" to="5670139" type="veh_passenger"/>
    <trip id="veh97" depart="124.40" departLane="best" from="496986970#0" to="91383966#1" type="veh_passenger"/>
    <trip id="veh98" depart="125.68" departLane="best" from="499172074#0" to="618990022#6" type="veh_passenger"/>
    <trip id="veh99" depart="126.96" departLane="best" from="-5670874#1" to="195743336#1" type="veh_passenger"/>
    <trip id="veh100" depart="128.24" departLane="best" from="196117092" to="499172074#2" type="veh_passenger"/>
    <trip id="veh101" depart="129.53" departLane="best" from="5669664#0" to="196116976#6" type="veh_passenger"/>
    <trip id="veh102" depart="130.81" departLane="best" from="496989355#1" to="22898530#2" type="veh_passenger"/>
    <trip id="veh104" depart="133.37" departLane="best" from="324118558" to="22898530#4" type="veh_passenger"/>
    <trip id="veh106" depart="135.94" departLane="best" from="496989355#3" to="22898530#2" type="veh_passenger"/>
    <trip id="veh107" depart="137.22" departLane="best" from="324118558" to="-196116988#0" type="veh_passenger"/>
    <trip id="veh108" depart="138.50" departLane="best" from="-505582406" to="5672951#1" type="veh_passenger"/>
    <trip id="veh109" depart="139.79" departLane="best" from="618990022#0" to="497258108#1" type="veh_passenger"/>
    <trip id="veh110" depart="141.07" departLane="best" from="5672752#1" to="499172074#11" type="veh_passenger"/>
    <trip id="veh111" depart="142.35" departLane="best" from="-5672752#0" to="195743336#2" type="veh_passenger"/>
    <trip id="veh112" depart="143.63" departLane="best" from="198924778#0" to="569345537#4" type="veh_passenger"/>
    <trip id="veh113" depart="144.92" departLane="best" from="5672290" to="5672951#1" type="veh_passenger"/>
    <trip id="veh114" depart="146.20" departLane="best" from="618990022#0" to="196116976#6" type="veh_passenger"/>
    <trip id="veh115" depart="147.48" departLane="best" from="196116976#3" to="186202420#1" type="veh_passenger"/>
    <trip id="veh116" depart="148.76" departLane="best" from="5670874#2" to="5672951#1" type="veh_passenger"/>
    <trip id="veh117" depart="150.05" departLane="best" from="569345537#0" to="91383966#1" type="veh_passenger"/>
    <trip id="veh118" depart="151.33" departLane="best" from="5672290" to="5672951#1" type="veh_passenger"/>
    <trip id="veh119" depart="152.61" departLane="best" from="-496986969#0" to="5670348#1" type="veh_passenger"/>
    <trip id="veh120" depart="153.89" departLane="best" from="5672290" to="5672951#1" type="veh_passenger"/>
    <trip id="veh121" depart="155.17" departLane="best" from="5672290" to="22898530#3" type="veh_passenger"/>
    <trip id="veh122" depart="156.46" departLane="best" from="569345537#0" to="5672951#1" type="veh_passenger"/>
    <trip id="veh123" depart="157.74" departLane="best" from="196116975#0" to="5671574#1" type="veh_passenger"/>
    <trip id="veh125" depart="160.30" departLane="best" from="-496986969#0" to="196116976#6" type="veh_passenger"/>
    <trip id="veh126" depart="161.59" departLane="best" from="226041032#3" to="5672951#1" type="veh_passenger"/>
    <trip id="veh127" depart="162.87" departLane="best" from="497258108#0" to="422298615#1" type="veh_passenger"/>
    <trip id="veh128" depart="164.15" departLane="best" from="618990022#11" to="195743336#1" type="veh_passenger"/>
    <trip id="veh129" depart="165.43" departLane="best" from="-5670139" to="460065822#0" type="veh_passenger"/>
    <trip id="veh130" depart="166.72" departLane="best" from="5669664#1" to="308322448#1" type="veh_passenger"/>
    <trip id="veh131" depart="168.00" departLane="best" from="308322447#2" to="499172074#11" type="veh_passenger"/>
    <trip id="veh132" depart="169.28" departLane="best" from="196116976#3" to="5670139" type="veh_passenger"/>
    <trip id="veh133" depart="170.56" departLane="best" from="46525065#0" to="5670253#0" type="veh_passenger"/>
    <trip id="veh134" depart="171.85" departLane="best" from="22898530#4" to="-5670874#2" type="veh_passenger"/>
    <trip id="veh135" depart="173.13" departLane="best" from="499172074#0" to="382740985#0" type="veh_passenger"/>
    <trip id="veh136" depart="174.41" departLane="best" from="198924778#1" to="5672752#1" type="veh_passenger"/>
    <trip id="veh137" depart="175.69" departLane="best" from="198924778#0" to="439801903" type="veh_passenger"/>
    <trip id="veh138" depart="176.98" departLane="best" from="308322448#1" to="308322447#2" type="veh_passenger"/>
    <trip id="veh139" depart="178.26" departLane="best" from="-5670874#0" to="460065820" type="veh_passenger"/>
    <trip id="veh140" depart="179.54" departLane="best" from="618990022#11" to="5669664#0" type="veh_passenger"/>
    <trip id="veh141" depart="180.82" departLane="best" from="618990022#0" to="499172074#5" type="veh_passenger"/>
    <trip id="veh142" depart="182.11" departLane="best" from="198924778#0" to="497258108#1" type="veh_passenger"/>
    <trip id="veh143" depart="183.39" departLane="best" from="324118558" to="499172074#11" type="veh_passenger"/>
    <trip id="veh144" depart="184.67" departLane="best" from="497258108#1" to="46538371#3" type="veh_passenger"/>
    <trip id="veh145" depart="185.95" departLane="best" from="420899372" to="569345537#4" type="veh_passenger"/>
    <trip id="veh146" depart="187.24" departLane="best" from="5672290" to="196116976#3" type="veh_passenger"/>
    <trip id="veh147" depart="188.52" departLane="best" from="-5670139" to="496986970#1" type="veh_passenger"/>
    <trip id="veh148" depart="189.80" departLane="best" from="5672290" to="5670348#1" type="veh_passenger"/>
    <trip id="veh149" depart="191.08" departLane="best" from="499172074#1" to="196117092" type="veh_passenger"/>
    <trip id="veh150" depart="192.37" departLane="best" from="196116975#0" to="-496986969#0" type="veh_passenger"/>
    <trip id="veh151" depart="193.65" departLane="best" from="196116976#1" to="46538371#3" type="veh_passenger"/>
    <trip id="veh152" depart="194.93" departLane="best" from="569345537#0" to="-5672752#0" type="veh_passenger"/>
    <trip id="veh153" depart="196.21" departLane="best" from="324118554#1" to="505582406" type="veh_passenger"/>
    <trip id="veh154" depart="197.50" departLane="best" from="196116975#0" to="5670139" type="veh_passenger"/>
    <trip id="veh155" depart="198.78" departLane="best" from="422298615#1" to="226041032#3" type="veh_passenger"/>
    <trip id="veh156" depart="200.06" departLane="best" from="497258109" to="-195743152#0" type="veh_passenger"/>
    <trip id="veh158" depart="202.62" departLane="best" from="-5670139" to="460065820" type="veh_passenger"/>
    <trip id="veh159" depart="203.91" departLane="best" from="186202420#1" to="618990022#9" type="veh_passenger"/>
    <trip id="veh160" depart="205.19" departLane="best" from="460065820" to="-5670253#1" type="veh_passenger"/>
    <trip id="veh162" depart="207.75" departLane="best" from="499172074#0" to="91383966#1" type="veh_passenger"/>
    <trip id="veh163" depart="209.04" departLane="best" from="5669664#0" to="496986970#0" type="veh_passenger"/>
    <trip id="veh164" depart="210.32" departLane="best" from="5672752#0" to="497258108#1" type="veh_passenger"/>
    <trip id="veh165" depart="211.60" departLane="best" from="618990022#0" to="5670348#1" type="veh_passenger"/>
    <trip id="veh166" depart="212.88" departLane="best" from="420899372" to="22898530#2" type="veh_passenger"/>
    <trip id="veh167" depart="214.17" departLane="best" from="5670874#0" to="496989355#0" type="veh_passenger"/>
    <trip id="veh168" depart="215.45" departLane="best" from="-5670139" to="308322447#1" type="veh_passenger"/>
    <trip id="veh169" depart="216.73" departLane="best" from="46525065#0" to="195743336#2" type="veh_passenger"/>
    <trip id="veh170" depart="218.01" departLane="best" from="196116975#4" to="5670139" type="veh_passenger"/>
    <trip id="veh171" depart="219.30" departLane="best" from="541350711#0" to="-5670874#1" type="veh_passenger"/>
    <trip id="veh172" depart="220.58" departLane="best" from="308322448#2" to="497258108#1" type="veh_passenger"/>
    <trip id="veh173" depart="221.86" departLane="best" from="324118554#1" to="196116976#6" type="veh_passenger"/>
    <trip id="veh174" depart="223.14" departLane="best" from="569345537#0" to="5670348#1" type="veh_passenger"/>
    <trip id="veh175" depart="224.43" departLane="best" from="569345537#0" to="618990022#8" type="veh_passenger"/>
    <trip id="veh176" depart="225.71" departLane="best" from="324118554#1" to="5670348#1" type="veh_passenger"/>
    <trip id="veh177" depart="226.99" departLane="best" from="46525065#0" to="499172074#2" type="veh_passenger"/>
    <trip id="veh178" depart="228.27" departLane="best" from="196116975#0" to="196117092" type="veh_passenger"/>
    <trip id="veh179" depart="229.56" departLane="best" from="324118558" to="-496986969#1" type="veh_passenger"/>
    <trip id="veh180" depart="230.84" departLane="best" from="226041032#4" to="5669664#1" type="veh_passenger"/>
    <trip id="veh181" depart="232.12" departLane="best" from="420890023" to="195743336#2" type="veh_passenger"/>
    <trip id="veh182" depart="233.40" departLane="best" from="308322447#4" to="499172074#1" type="veh_passenger"/>
    <trip id="veh183" depart="234.69" departLane="best" from="-496986969#0" to="505582406" type="veh_passenger"/>
    <trip id="veh184" depart="235.97" departLane="best" from="-5670874#1" to="46538371#3" type="veh_passenger"/>
    <trip id="veh185" depart="237.25" departLane="best" from="-505582406" to="420899372" type="veh_passenger"/>
    <trip id="veh186" depart="238.53" departLane="best" from="196116975#0" to="324118554#1" type="veh_passenger"/>
    <trip id="veh187" depart="239.82" departLane="best" from="5670873#1" to="420899372" type="veh_passenger"/>
    <trip id="veh188" depart="241.10" departLane="best" from="-196117083" to="497258108#0" type="veh_passenger"/>
    <trip id="veh189" depart="242.38" departLane="best" from="663543997" to="382740985#3" type="veh_passenger"/>
    <trip id="veh190" depart="243.66" departLane="best" from="497258108#1" to="5670348#1" type="veh_passenger"/>
    <trip id="veh191" depart="244.95" departLane="best" from="618990022#12" to="196116976#6" type="veh_passenger"/>
    <trip id="veh192" depart="246.23" departLane="best" from="-5670874#0" to="541350711#1" type="veh_passenger"/>
    <trip id="veh193" depart="247.51" departLane="best" from="46525065#0" to="196117083" type="veh_passenger"/>
    <trip id="veh195" depart="250.08" departLane="best" from="186202420#0" to="499172074#3" type="veh_passenger"/>
    <trip id="veh198" depart="253.92" departLane="best" from="-5670139" to="-496986969#0" type="veh_passenger"/>
    <trip id="veh199" depart="255.20" departLane="best" from="618990022#3" to="422298615#1" type="veh_passenger"/>
    <trip id="veh200" depart="256.49" departLane="best" from="499172074#5" to="505582406" type="veh_passenger"/>
    <trip id="veh202" depart="259.05" departLane="best" from="569345537#0" to="499172074#2" type="veh_passenger"/>
    <trip id="veh203" depart="260.33" departLane="best" from="-5670253#1" to="91383966#1" type="veh_passenger"/>
    <trip id="veh204" depart="261.62" departLane="best" from="5670874#2" to="382740985#3" type="veh_passenger"/>
    <trip id="veh205" depart="262.90" departLane="best" from="324118558" to="420890023" type="veh_passenger"/>
    <trip id="veh206" depart="264.18" departLane="best" from="439801903" to="382740985#3" type="veh_passenger"/>
    <trip id="veh207" depart="265.46" departLane="best" from="569345537#0" to="5671574#1" type="veh_passenger"/>
    <trip id="veh208" depart="266.75" departLane="best" from="-5670139" to="618990022#9" type="veh_passenger"/>
    <trip id="veh209" depart="268.03" departLane="best" from="496989355#3" to="5671574#1" type="veh_passenger"/>
    <trip id="veh210" depart="269.31" departLane="best" from="541350711#0" to="460065822#0" type="veh_passenger"/>
    <trip id="veh212" depart="271.88" departLane="best" from="196117092" to="5671574#1" type="veh_passenger"/>
    <trip id="veh213" depart="273.16" departLane="best" from="46525065#0" to="46583189#1" type="veh_passenger"/>
    <trip id="veh214" depart="274.44" departLane="best" from="324118558" to="5670348#0" type="veh_passenger"/>
    <trip id="veh215" depart="275.72" departLane="best" from="196117083" to="5672951#0" type="veh_passenger"/>
    <trip id="veh216" depart="277.01" departLane="best" from="420890023" to="499172074#3" type="veh_passenger"/>
    <trip id="veh217" depart="278.29" departLane="best" from="308322447#1" to="-496986969#1" type="veh_passenger"/>
    <trip id="veh218" depart="279.57" departLane="best" from="569345537#0" to="196116976#6" type="veh_passenger"/>
    <trip id="veh219" depart="280.85" departLane="best" from="196116975#0" to="5670874#2" type="veh_passenger"/>
    <trip id="veh220" depart="282.14" departLane="best" from="22898530#0" to="5672951#1" type="veh_passenger"/>
    <trip id="veh222" depart="284.70" departLane="best" from="499172074#5" to="505582406" type="veh_passenger"/>
    <trip id="veh223" depart="285.98" departLane="best" from="-5670139" to="196117092" type="veh_passenger"/>
    <trip id="veh224" depart="287.27" departLane="best" from="499172074#5" to="308322447#4" type="veh_passenger"/>
    <trip id="veh225" depart="288.55" departLane="best" from="46583189#1" to="46538371#3" type="veh_passenger"/>
    <trip id="veh227" depart="291.11" departLane="best" from="196116976#3" to="195743336#2" type="veh_passenger"/>
    <trip id="veh228" depart="292.40" departLane="best" from="195743336#0" to="196117083" type="veh_passenger"/>
    <trip id="veh230" depart="294.96" departLane="best" from="198924778#0" to="186202420#1" type="veh_passenger"/>
    <trip id="veh232" depart="297.53" departLane="best" from="195743336#0" to="-196117083" type="veh_passenger"/>
    <trip id="veh233" depart="298.81" departLane="best" from="618990022#7" to="497258109" type="veh_passenger"/>
    <trip id="veh235" depart="301.37" departLane="best" from="569345537#0" to="496986969#0" type="veh_passenger"/>
    <trip id="veh236" depart="302.65" departLane="best" from="569345537#0" to="499172074#11" type="veh_passenger"/>
    <trip id="veh237" depart="303.94" departLane="best" from="420899372" to="46538371#0" type="veh_passenger"/>
    <trip id="veh238" depart="305.22" departLane="best" from="618990022#11" to="46583189#1" type="veh_passenger"/>
    <trip id="veh239" depart="306.50" departLane="best" from="46525065#0" to="308322447#4" type="veh_passenger"/>
    <trip id="veh240" depart="307.78" departLane="best" from="663543997" to="195743336#2" type="veh_passenger"/>
    <trip id="veh241" depart="309.07" departLane="best" from="5670873#1" to="499172074#2" type="veh_passenger"/>
    <trip id="veh243" depart="311.63" departLane="best" from="460065820" to="46538371#3" type="veh_passenger"/>
    <trip id="veh244" depart="312.91" departLane="best" from="324118558" to="5672951#1" type="veh_passenger"/>
    <trip id="veh245" depart="314.20" departLane="best" from="618990022#9" to="308322447#4" type="veh_passenger"/>
    <trip id="veh246" depart="315.48" departLane="best" from="5670253#1" to="618990022#7" type="veh_passenger"/>
    <trip id="veh247" depart="316.76" departLane="best" from="196116975#0" to="196116976#6" type="veh_passenger"/>
    <trip id="veh248" depart="318.04" departLane="best" from="497258109" to="196116976#0" type="veh_passenger"/>
    <trip id="veh249" depart="319.33" departLane="best" from="-195743152#0" to="46538371#3" type="veh_passenger"/>
    <trip id="veh250" depart="320.61" departLane="best" from="196116975#4" to="5670139" type="veh_passenger"/>
    <trip id="veh253" depart="324.46" departLane="best" from="497258109" to="618990022#5" type="veh_passenger"/>
    <trip id="veh254" depart="325.74" departLane="best" from="324118558" to="497258108#1" type="veh_passenger"/>
    <trip id="veh255" depart="327.02" departLane="best" from="5672290" to="-5672752#0" type="veh_passenger"/>
    <trip id="veh256" depart="328.30" departLane="best" from="186202420#0" to="308322447#4" type="veh_passenger"/>
    <trip id="veh258" depart="330.87" departLane="best" from="198924778#0" to="195743336#2" type="veh_passenger"/>
    <trip id="veh259" depart="332.15" departLane="best" from="499172074#3" to="5670139" type="veh_passenger"/>
    <trip id="veh260" depart="333.43" departLane="best" from="422298615#1" to="-5672752#1" type="veh_passenger"/>
    <trip id="veh261" depart="334.72" departLane="best" from="-497258109" to="460065821#1" type="veh_passenger"/>
    <trip id="veh263" depart="337.28" departLane="best" from="5672752#1" to="499172074#11" type="veh_passenger"/>
    <trip id="veh264" depart="338.56" departLane="best" from="618990022#12" to="91383966#1" type="veh_passenger"/>
    <trip id="veh265" depart="339.85" departLane="best" from="499172074#1" to="22898530#3" type="veh_passenger"/>
    <trip id="veh266" depart="341.13" departLane="best" from="-497258109" to="5670348#1" type="veh_passenger"/>
    <trip id="veh267" depart="342.41" departLane="best" from="420899372" to="505582406" type="veh_passenger"/>
    <trip id="veh268" depart="343.69" departLane="best" from="618990022#0" to="196116976#6" type="veh_passenger"/>
    <trip id="veh269" depart="344.98" departLane="best" from="46583189#1" to="505582406" type="veh_passenger"/>
    <trip id="veh270" depart="346.26" departLane="best" from="422298615#1" to="186202420#0" type="veh_passenger"/>
    <trip id="veh271" depart="347.54" departLane="best" from="22898530#2" to="382740985#0" type="veh_passenger"/>
    <trip id="veh272" depart="348.82" departLane="best" from="499172074#1" to="5672951#0" type="veh_passenger"/>
    <trip id="veh273" depart="350.11" departLane="best" from="226041032#3" to="5670139" type="veh_passenger"/>
    <trip id="veh274" depart="351.39" departLane="best" from="198924778#0" to="618990022#7" type="veh_passenger"/>
    <trip id="veh275" depart="352.67" departLane="best" from="324118558" to="308322448#1" type="veh_passenger"/>
    <trip id="veh276" depart="353.95" departLane="best" from="226041032#0" to="91383966#1" type="veh_passenger"/>
    <trip id="veh277" depart="355.23" departLane="best" from="618990022#9" to="505582406" type="veh_passenger"/>
    <trip id="veh279" depart="357.80" departLane="best" from="195743336#1" to="382740985#3" type="veh_passenger"/>
    <trip id="veh280" depart="359.08" departLane="best" from="5670873#0" to="499172074#9" type="veh_passenger"/>
    <trip id="veh281" depart="360.36" departLane="best" from="5670873#1" to="196116976#6" type="veh_passenger"/>
    <trip id="veh283" depart="362.93" departLane="best" from="324118558" to="5670139" type="veh_passenger"/>
    <trip id="veh284" depart="364.21" departLane="best" from="-5670253#1" to="91383966#1" type="veh_passenger"/>
    <trip id="veh285" depart="365.49" departLane="best" from="496986970#0" to="226041032#3" type="veh_passenger"/>
    <trip id="veh286" depart="366.78" departLane="best" from="-5672752#1" to="497258109" type="veh_passenger"/>
    <trip id="veh287" depart="368.06" departLane="best" from="46525065#0" to="186202420#0" type="veh_passenger"/>
    <trip id="veh289" depart="370.62" departLane="best" from="541350711#1" to="496986970#0" type="veh_passenger"/>