<?xml version="1.0" encoding="UTF-8"?>

<!-- generated on 02/22/19 14:27:15 by Eclipse SUMO duarouter Version 1.0.1
<configuration xmlns:xsi="http://www.w3.org/2001/XMLSchema-instance" xsi:noNamespaceSchemaLocation="http://sumo.dlr.de/xsd/duarouterConfiguration.xsd">

    <input>
        <net-file value="osm.net.xml"/>
        <route-files value="osm.bicycle.trips.xml"/>
    </input>

    <output>
        <output-file value="osm.bicycle.rou.xml"/>
        <alternatives-output value="osm.bicycle.rou.alt.xml"/>
    </output>

    <time>
        <begin value="0"/>
        <end value="3600.0"/>
    </time>

    <report>
        <no-warnings value="true"/>
        <ignore-errors value="true"/>
        <no-step-log value="true"/>
    </report>

</configuration>
-->

<routes xmlns:xsi="http://www.w3.org/2001/XMLSchema-instance" xsi:noNamespaceSchemaLocation="http://sumo.dlr.de/xsd/routes_file.xsd">
    <vType id="bike_bicycle" vClass="bicycle"/>
    <vehicle id="bike0" type="bike_bicycle" depart="0.00" departLane="best">
        <route edges="496989355#3 226041032#0 226041032#3 -226041032#3"/>
    </vehicle>
    <vehicle id="bike1" type="bike_bicycle" depart="3.58" departLane="best">
        <route edges="196117083 -196117083 196116976#0 196116976#1 196116976#3"/>
    </vehicle>
    <vehicle id="bike2" type="bike_bicycle" depart="7.16" departLane="best">
        <route edges="5670253#0 5670253#1 46583189#1 46583189#2 5669664#0 5669664#1"/>
    </vehicle>
    <vehicle id="bike3" type="bike_bicycle" depart="10.74" departLane="best">
        <route edges="618990022#0 618990022#3 196116976#1 -499172074#7 -499172074#4 -499172074#2 -499172074#1"/>
    </vehicle>
    <vehicle id="bike4" type="bike_bicycle" depart="14.31" departLane="best">
        <route edges="330748499 648888142#1 648888142#2 5670873#1 -5670253#1 -5670253#0 420899372 496986970#0 496986970#1 496989355#0 496989355#1 496989355#3 226041032#0 226041032#3 -226041032#3"/>
    </vehicle>
    <vehicle id="bike5" type="bike_bicycle" depart="17.89" departLane="best">
        <route edges="195743336#0 195743336#1 499172074#0 499172074#1 499172074#2 499172074#3 496989355#3 382740985#0 46538371#0"/>
    </vehicle>
    <vehicle id="bike6" type="bike_bicycle" depart="21.47" departLane="best">
        <route edges="-226041032#3 226041032#3 226041032#4 569345537#4 -499172074#0 195743336#2"/>
    </vehicle>
    <vehicle id="bike7" type="bike_bicycle" depart="25.05" departLane="best">
        <route edges="497258108#1 420899372 496986970#0"/>
    </vehicle>
    <vehicle id="bike8" type="bike_bicycle" depart="28.63" departLane="best">
        <route edges="195743336#0 195743336#1 499172074#0 541350711#0 541350711#1 497258109"/>
    </vehicle>
    <vehicle id="bike9" type="bike_bicycle" depart="32.21" departLane="best">
        <route edges="5672752#1 196117083 196117092 420890023 125480074 460065820 420899373 -196116988#0"/>
    </vehicle>
    <vehicle id="bike11" type="bike_bicycle" depart="39.36" departLane="best">
        <route edges="22898530#4 308322448#1 308322448#2 -5672752#1"/>
    </vehicle>
    <vehicle id="bike12" type="bike_bicycle" depart="42.94" departLane="best">
        <route edges="648888142#2 5670873#1 5670874#0 5670874#1 5670874#2 422298615#1 422298615#4 -497258109 497258108#0 308322447#3"/>
    </vehicle>
    <vehicle id="bike13" type="bike_bicycle" depart="46.52" departLane="best">
        <route edges="-499172074#18 -499172074#10"/>
    </vehicle>
    <vehicle id="bike15" type="bike_bicycle" depart="53.68" departLane="best">
        <route edges="5672752#0 5672752#1 196117083 196117092 420890023 125480074 460065820 439801903 5670348#0"/>
    </vehicle>
    <vehicle id="bike17" type="bike_bicycle" depart="60.83" departLane="best">
        <route edges="308322447#3 308322447#4 5669664#0 5669664#1 422298615#4 -497258109 497258108#0 497258108#1 420899372 496986970#0 496986970#1"/>
    </vehicle>
    <vehicle id="bike18" type="bike_bicycle" depart="64.41" departLane="best">
        <route edges="569345537#0 569345537#3 569345537#4 499172074#1 499172074#2"/>
    </vehicle>
    <vehicle id="bike20" type="bike_bicycle" depart="71.57" departLane="best">
        <route edges="541350711#1 496986969#0 496986969#1 496989355#0 496989355#1 499172074#5 499172074#9 -458642436"/>
    </vehicle>
    <vehicle id="bike21" type="bike_bicycle" depart="75.15" departLane="best">
        <route edges="195743336#1 499172074#0 541350711#0 541350711#1 496986969#0 496986969#1 5672752#0 5672752#1 196117083 196117092 420890023 125480074 22898530#0 22898530#2"/>
    </vehicle>
    <vehicle id="bike22" type="bike_bicycle" depart="78.72" departLane="best">
        <route edges="-499172074#1 499172074#1 499172074#2 499172074#3 496989355#3 382740985#0 46538371#0 196116976#6"/>
    </vehicle>
    <vehicle id="bike23" type="bike_bicycle" depart="82.30" departLane="best">
        <route edges="-499172074#2 499172074#2 499172074#3 496989355#3 226041032#0 226041032#3 226041032#4"/>
    </vehicle>
    <vehicle id="bike24" type="bike_bicycle" depart="85.88" departLane="best">
        <route edges="496989355#1 499172074#5 196116976#3 324118554#1"/>
    </vehicle>
    <vehicle id="bike25" type="bike_bicycle" depart="89.46" departLane="best">
        <route edges="308322447#1 496986970#1 5672752#0 5672752#1 196116976#0"/>
    </vehicle>
    <vehicle id="bike27" type="bike_bicycle" depart="96.62" departLane="best">
        <route edges="497258108#0 497258108#1 420899372 496986970#0 496986970#1 496989355#0 496989355#1 499172074#5 499172074#9 499172074#11"/>
    </vehicle>
    <vehicle id="bike28" type="bike_bicycle" depart="100.20" departLane="best">
        <route edges="-5670874#2 -5670874#1 -5670874#0 -5670253#1 -5670253#0 420899372 -195743152#0 439801903 5670348#0"/>
    </vehicle>
    <vehicle id="bike29" type="bike_bicycle" depart="103.77" departLane="best">
        <route edges="-5670874#1 -5670874#0 -5670253#1 -5670253#0 420899372 496986970#0 496986970#1 496989355#0 496989355#1 496989355#3 382740985#0 382740985#3"/>
    </vehicle>
    <vehicle id="bike30" type="bike_bicycle" depart="107.35" departLane="best">
        <route edges="648888157#3 22946967#0 22946967#1 496986970#0 496986970#1 496989355#0 496989355#1 499172074#5 499172074#9"/>
    </vehicle>
    <vehicle id="bike31" type="bike_bicycle" depart="110.93" departLane="best">
        <route edges="46525065#0 308322446 308322448#1 308322448#2 -5672752#1 -5672752#0 -496986969#1 -496986969#0 497258109 5670139"/>
    </vehicle>
    <vehicle id="bike32" type="bike_bicycle" depart="114.51" departLane="best">
        <route edges="569345537#4 541350711#0 541350711#1 497258108#0 497258108#1 5670253#0 5670253#1 5670874#0 5670874#1 5670874#2 5671574#0"/>
    </vehicle>
    <vehicle id="bike33" type="bike_bicycle" depart="118.09" departLane="best">
        <route edges="196116975#0 196116975#4 460065822#0 22898530#0 22898530#2 22898530#3 22898530#4 308322448#1 308322448#2 196116976#0 196116976#1 196116976#3 324118554#1 226041032#0 226041032#3 226041032#4 -226041032#4"/>
    </vehicle>
    <vehicle id="bike34" type="bike_bicycle" depart="121.67" departLane="best">
        <route edges="226041032#4 -226041032#4 -226041032#3 -226041032#1 226041032#0"/>
    </vehicle>
    <vehicle id="bike35" type="bike_bicycle" depart="125.24" departLane="best">
        <route edges="186202420#1 433476262#0 433476262#1 308322448#1 308322448#2 196116976#0 618990022#5 618990022#6 618990022#7 618990022#8"/>
    </vehicle>
    <vehicle id="bike37" type="bike_bicycle" depart="132.40" departLane="best">
        <route edges="497258109 -497258109 497258108#0 497258108#1 420899372"/>
    </vehicle>
    <vehicle id="bike38" type="bike_bicycle" depart="135.98" departLane="best">
        <route edges="618990022#3 196116976#1 196116976#3 196116976#5 433476262#6"/>
    </vehicle>
    <vehicle id="bike39" type="bike_bicycle" depart="139.56" departLane="best">
        <route edges="196116976#3 324118554#1 226041032#0 226041032#3 226041032#4 569345537#4 541350711#0 541350711#1 496986969#0 496986969#1 5672752#0 5672752#1 196117083"/>
    </vehicle>
    <vehicle id="bike40" type="bike_bicycle" depart="143.14" departLane="best">
        <route edges="46525065#0 308322446 308322448#1 308322448#2 196116976#0 196116976#1 196116976#3 324118554#1 226041032#0"/>
    </vehicle>
    <vehicle id="bike41" type="bike_bicycle" depart="146.71" departLane="best">
        <route edges="46583189#2 5669664#0 5669664#1 422298615#4 -497258109 496986969#0 496986969#1 496989355#0 618990022#7 618990022#8 618990022#9 618990022#10"/>
    </vehicle>
    <vehicle id="bike42" type="bike_bicycle" depart="150.29" departLane="best">
        <route edges="308322448#2 196116976#0 196116976#1"/>
    </vehicle>
    <vehicle id="bike43" type="bike_bicycle" depart="153.87" departLane="best">
        <route edges="663543997 -196117083 196116976#0 196116976#1 196116976#3 196116976#5 46538371#3"/>
    </vehicle>
    <vehicle id="bike44" type="bike_bicycle" depart="157.45" departLane="best">
        <route edges="-499172074#18 -458642436"/>
    </vehicle>
    <vehicle id="bike45" type="bike_bicycle" depart="161.03" departLane="best">
        <route edges="-499172074#4 499172074#3"/>
    </vehicle>
    <vehicle id="bike46" type="bike_bicycle" depart="164.61" departLane="best">
        <route edges="5672290 5670873#0 5670873#1 -5670253#1 -5670253#0 420899372 -195743152#0 433476262#0"/>
    </vehicle>
    <vehicle id="bike47" type="bike_bicycle" depart="168.18" departLane="best">
        <route edges="-497258109 496986969#0 496986969#1 496989355#0 496989355#1 496989355#3 382740985#0 382740985#3"/>
    </vehicle>
    <vehicle id="bike48" type="bike_bicycle" depart="171.76" departLane="best">
        <route edges="663543997 -196117083 -5672752#1 -5672752#0 -496986969#1 -496986969#0 497258108#0 497258108#1 5670253#0 5670253#1 46583189#1 46583189#2"/>
    </vehicle>
    <vehicle id="bike49" type="bike_bicycle" depart="175.34" departLane="best">
        <route edges="648888157#0 648888157#1 648888157#2 648888157#3 22946967#0 22946967#1 -196116988#0 576438593#0 576438593#1 576438593#2"/>
    </vehicle>
    <vehicle id="bike50" type="bike_bicycle" depart="178.92" departLane="best">
        <route edges="-196116988#0 5670253#0 5670253#1"/>
    </vehicle>
    <vehicle id="bike51" type="bike_bicycle" depart="182.50" departLane="best">
        <route edges="499172074#3 -499172074#4 -499172074#2 -499172074#1 541350711#0 541350711#1 496986969#0 496986969#1"/>
    </vehicle>
    <vehicle id="bike53" type="bike_bicycle" depart="189.66" departLane="best">
        <route edges="-499172074#7 -499172074#4 -499172074#2 -499172074#1 541350711#0 541350711#1 496986969#0 496986969#1 5672752#0 5672752#1 196117083 196117092 308322446 433476262#2"/>
    </vehicle>
    <vehicle id="bike56" type="bike_bicycle" depart="200.39" departLane="best">
        <route edges="433476262#4 324118554#1 226041032#0 226041032#3 226041032#4 569345537#4 541350711#0 541350711#1 497258109 195743336#0"/>
    </vehicle>
    <vehicle id="bike58" type="bike_bicycle" depart="207.55" departLane="best">
        <route edges="198924778#1 -5670874#2 -5670874#1 -5670874#0 -5670253#1 -5670253#0 420899372 496986970#0 496986970#1 496989355#0 496989355#1 499172074#5 499172074#9"/>
    </vehicle>
    <vehicle id="bike59" type="bike_bicycle" depart="211.13" departLane="best">
        <route edges="496986969#1 5672752#0 5672752#1 -5672752#1"/>
    </vehicle>
    <vehicle id="bike60" type="bike_bicycle" depart="214.70" departLane="best">
        <route edges="5670873#1 5670874#0 5670874#1 5670874#2 422298615#1 422298615#4 -497258109 496986969#0 496986969#1"/>
    </vehicle>
    <vehicle id="bike61" type="bike_bicycle" depart="218.28" departLane="best">
        <route edges="5670874#2 -5670874#2 -5670874#1 -5670874#0 46583189#1 46583189#2"/>
    </vehicle>
    <vehicle id="bike62" type="bike_bicycle" depart="221.86" departLane="best">
        <route edges="-195743152#0 433476262#0 433476262#1 308322447#1"/>
    </vehicle>
    <vehicle id="bike63" type="bike_bicycle" depart="225.44" departLane="best">
        <route edges="-226041032#1 226041032#0 226041032#3 226041032#4 569345537#4 541350711#0 541350711#1 496986969#0 496986969#1 5672752#0 5672752#1 196116976#0 618990022#5 618990022#6"/>
    </vehicle>
    <vehicle id="bike65" type="bike_bicycle" depart="232.60" departLane="best">
        <route edges="226041032#0 226041032#3 226041032#4 569345537#4 541350711#0 541350711#1 496986969#0 496986969#1 496989355#0 618990022#7 -477823038"/>
    </vehicle>
    <vehicle id="bike67" type="bike_bicycle" depart="239.75" departLane="best">
        <route edges="-499172074#10 -499172074#7 -499172074#4 -499172074#2 -499172074#1 541350711#0 541350711#1 496986969#0 496986969#1 5672752#0 5672752#1 196117083 196117092 420890023 125480074 460065820"/>
    </vehicle>
    <vehicle id="bike68" type="bike_bicycle" depart="243.33" departLane="best">
        <route edges="-499172074#0 499172074#0 541350711#0 541350711#1 497258108#0 497258108#1 5670253#0 5670253#1 5670874#0"/>
    </vehicle>
    <vehicle id="bike69" type="bike_bicycle" depart="246.91" departLane="best">
        <route edges="5670874#0 -5670874#0"/>
    </vehicle>
    <vehicle id="bike70" type="bike_bicycle" depart="250.49" departLane="best">
        <route edges="422298615#4 -497258109 497258108#0 497258108#1 420899372 496986970#0 496986970#1"/>
    </vehicle>
    <vehicle id="bike72" type="bike_bicycle" depart="257.64" departLane="best">
        <route edges="330748499 648888142#1 648888142#2 5670873#1 -5670253#1 -5670253#0 420899372 496986970#0 496986970#1 5672752#0 5672752#1 196116976#0"/>
    </vehicle>
    <vehicle id="bike73" type="bike_bicycle" depart="261.22" departLane="best">
        <route edges="460065820 439801903 5670348#0"/>
    </vehicle>
    <vehicle id="bike75" type="bike_bicycle" depart="268.38" departLane="best">
        <route edges="663543997 505582406"/>
    </vehicle>
    <vehicle id="bike76" type="bike_bicycle" depart="271.96" departLane="best">
        <route edges="382740985#0 46538371#0 46538371#3"/>
    </vehicle>
    <vehicle id="bike77" type="bike_bicycle" depart="275.54" departLane="best">
        <route edges="-505582406 -196117083 196116976#0 196116976#1 196116976#3"/>
    </vehicle>
    <vehicle id="bike78" type="bike_bicycle" depart="279.11" departLane="best">
        <route edges="22898530#3 22898530#4 308322448#1 308322448#2 -5672752#1 -5672752#0 -496986969#1 -496986969#0 497258109"/>
    </vehicle>
    <vehicle id="bike79" type="bike_bicycle" depart="282.69" departLane="best">
        <route edges="196116975#0 196116975#4 460065822#0 22898530#0 22898530#2 22898530#3 22898530#4 308322448#1 308322448#2 196116976#0 196116976#1 196116976#3"/>
    </vehicle>
    <vehicle id="bike80" type="bike_bicycle" depart="286.27" departLane="best">
        <route edges="-499172074#0 499172074#0 499172074#1 499172074#2 499172074#3 499172074#5"/>
    </vehicle>
    <vehicle id="bike81" type="bike_bicycle" depart="289.85" departLane="best">
        <route edges="196116975#0 196116975#4 460065822#0 22898530#0 22898530#2 22898530#3 22898530#4 308322448#1 308322448#2 196116976#0 618990022#5 618990022#6 618990022#7 618990022#8 618990022#9 618990022#10 618990022#11"/>
    </vehicle>
    <vehicle id="bike83" type="bike_bicycle" depart="297.01" departLane="best">
        <route edges="196116975#0 196116975#4 460065822#0 22898530#0 22898530#2 22898530#3 22898530#4 308322447#1 308322447#2 308322447#3 308322447#4 5669664#0"/>
    </vehicle>
    <vehicle id="bike84" type="bike_bicycle" depart="300.59" departLane="best">
        <route edges="186202420#1 420899373 -196116988#0 5670253#0 5670253#1 5670874#0 -5670874#0"/>
    </vehicle>
    <vehicle id="bike85" type="bike_bicycle" depart="304.16" departLane="best">
        <route edges="618990022#7 618990022#8 618990022#9 618990022#10 618990022#11 541350711#1 496986969#0 496986969#1 496989355#0 496989355#1 496989355#3"/>
    </vehicle>
    <vehicle id="bike86" type="bike_bicycle" depart="307.74" departLane="best">
        <route edges="422298615#4 -497258109 497258108#0 497258108#1 5670253#0 5670253#1 5670874#0 5670874#1 5670874#2 5671574#0 5671574#1"/>
    </vehicle>
    <vehicle id="bike87" type="bike_bicycle" depart="311.32" departLane="best">
        <route edges="5672752#0 -5672752#0 496989355#0 618990022#7 618990022#8 618990022#9 618990022#10 618990022#11 618990022#12 195743336#1 195743336#2"/>
    </vehicle>
    <vehicle id="bike88" type="bike_bicycle" depart="314.90" departLane="best">
        <route edges="-499172074#18 -499172074#10 -499172074#7 -499172074#4 -499172074#2 -499172074#1 541350711#0 541350711#1 497258108#0 497258108#1 420899372 -195743152#0 433476262#0 433476262#1"/>
    </vehicle>
    <vehicle id="bike89" type="bike_bicycle" depart="318.48" departLane="best">
        <route edges="330748499 648888142#1 648888142#2 5670873#1 -5670253#1 -5670253#0 420899372 496986970#0 496986970#1 496989355#0 496989355#1 496989355#3 382740985#0 46538371#0 433476262#6"/>
    </vehicle>
    <vehicle id="bike91" type="bike_bicycle" depart="325.63" departLane="best">
        <route edges="648888157#2 648888157#3 22946967#0 22946967#1 496986970#0 496986970#1 496989355#0 496989355#1 -499172074#4 -499172074#2"/>
    </vehicle>
    <vehicle id="bike92" type="bike_bicycle" depart="329.21" departLane="best">
        <route edges="324118554#1 226041032#0 226041032#3 226041032#4 569345537#4 541350711#0 541350711#1 497258108#0 308322447#3"/>
    </vehicle>
    <vehicle id="bike94" type="bike_bicycle" depart="336.37" departLane="best">
        <route edges="-570158316 226041032#3 226041032#4 569345537#4 499172074#1 499172074#2 499172074#3 499172074#5 433476262#4"/>
    </vehicle>
    <vehicle id="bike95" type="bike_bicycle" depart="339.95" departLane="best">
        <route edges="330748499 648888142#1 648888142#2 5670873#1 -5670253#1 -5670253#0 420899372 496986970#0 496986970#1 496989355#0 496989355#1 496989355#3 226041032#0 226041032#3 226041032#4"/>
    </vehicle>
    <vehicle id="bike96" type="bike_bicycle" depart="343.53" departLane="best">
        <route edges="196116976#0 618990022#5"/>
    </vehicle>
    <vehicle id="bike97" type="bike_bicycle" depart="347.10" departLane="best">
        <route edges="420890023 125480074 460065820 420899373 -196116988#0 576438593#0 576438593#1 576438593#2"/>
    </vehicle>
    <vehicle id="bike98" type="bike_bicycle" depart="350.68" departLane="best">
        <route edges="460065822#0 22898530#0 22898530#2 22898530#3 22898530#4 308322448#1 308322448#2 196116976#0 618990022#5 618990022#6 618990022#7 -477823038"/>
    </vehicle>
    <vehicle id="bike99" type="bike_bicycle" depart="354.26" departLane="best">
        <route edges="663543997 -196117083 196116976#0 196116976#1 196116976#3 324118554#1 226041032#0 570158316"/>
    </vehicle>
    <vehicle id="bike100" type="bike_bicycle" depart="357.84" departLane="best">
        <route edges="648888157#0 648888157#1 648888157#2 648888157#3 22946967#0 22946967#1 -195743152#0 433476262#0 433476262#1 308322448#1 308322448#2 196116976#0 618990022#5"/>
    </vehicle>
    <vehicle id="bike102" type="bike_bicycle" depart="365.00" departLane="best">
        <route edges="433476262#1 308322448#1 308322448#2 196116976#0 196116976#1"/>
    </vehicle>
    <vehicle id="bike103" type="bike_bicycle" depart="368.57" departLane="best">
        <route edges="308322448#2 196116976#0 618990022#5 618990022#6 618990022#7 -477823038"/>
    </vehicle>
    <vehicle id="bike105" type="bike_bicycle" depart="375.73" departLane="best">
        <route edges="196116976#3 324118554#1 226041032#0 226041032#3 226041032#4 569345537#4 541350711#0 541350711#1 497258108#0 497258108#1 5670253#0 5670253#1 5670874#0 5670874#1 5670874#2 5671574#0 5671574#1"/>
    </vehicle>
    <vehicle id="bike106" type="bike_bicycle" depart="379.31" departLane="best">
        <route edges="420899373 -195743152#0 433476262#0"/>
    </vehicle>
    <vehicle id="bike107" type="bike_bicycle" depart="382.89" departLane="best">
        <route edges="648888142#2 5670873#1 -5670253#1 -5670253#0 420899372 -195743152#0 439801903 91383966#1"/>
    </vehicle>
    <vehicle id="bike108" type="bike_bicycle" depart="386.47" departLane="best">
        <route edges="46525065#0 420890023 125480074 460065820 420899373 -196116988#0 5670253#0"/>
    </vehicle>
    <vehicle id="bike109" type="bike_bicycle" depart="390.05" departLane="best">
        <route edges="-5670874#0 -5670253#1 -5670253#0 420899372 -195743152#0 439801903 460065821#1 460065822#0 22898530#0 22898530#2 22898530#3"/>
    </vehicle>
    <vehicle id="bike110" type="bike_bicycle" depart="393.62" departLane="best">
        <route edges="648888157#0 648888157#1 648888157#2 648888157#3 22946967#0 22946967#1 496986970#0 496986970#1 -496986969#1 -496986969#0 497258108#0"/>
    </vehicle>
    <vehicle id="bike112" type="bike_bicycle" depart="400.78" departLane="best">
        <route edges="-496986969#1 -496986969#0 497258108#0 497258108#1"/>
    </vehicle>
    <vehicle id="bike113" type="bike_bicycle" depart="404.36" departLane="best">
        <route edges="433476262#4 324118554#1 226041032#0 226041032#3 226041032#4 569345537#4 541350711#0 541350711#1 497258108#0 497258108#1 576438593#0"/>
    </vehicle>
    <vehicle id="bike115" type="bike_bicycle" depart="411.52" departLane="best">
        <route edges="-499172074#1 541350711#0 618990022#12 195743336#1"/>
    </vehicle>
    <vehicle id="bike116" type="bike_bicycle" depart="415.09" departLane="best">
        <route edges="477823038 618990022#8 618990022#9 618990022#10 618990022#11 541350711#1 497258108#0 308322447#3 308322447#4 5669664#0 5669664#1"/>
    </vehicle>
    <vehicle id="bike117" type="bike_bicycle" depart="418.67" departLane="best">
        <route edges="196116975#0 196116975#4 460065822#0 460065820 420899373 -196116988#0 5670253#0 -5670253#0"/>
    </vehicle>
    <vehicle id="bike118" type="bike_bicycle" depart="422.25" departLane="best">
        <route edges="618990022#0 439933933 663543997 -196117083 196117083"/>
    </vehicle>
    <vehicle id="bike119" type="bike_bicycle" depart="425.83" departLane="best">
        <route edges="477823038 618990022#8 618990022#9 618990022#10 618990022#11 541350711#1 496986969#0 496986969#1 496989355#0 496989355#1 -499172074#4 -499172074#2 499172074#2"/>
    </vehicle>
    <vehicle id="bike120" type="bike_bicycle" depart="429.41" departLane="best">
        <route edges="324118558 324118554#1 226041032#0 226041032#3 226041032#4 569345537#4 541350711#0 541350711#1 497258108#0 497258108#1"/>
    </vehicle>
    <vehicle id="bike121" type="bike_bicycle" depart="432.99" departLane="best">
        <route edges="439933933 663543997 -196117083 196116976#0 618990022#5 618990022#6 618990022#7"/>
    </vehicle>
    <vehicle id="bike122" type="bike_bicycle" depart="436.56" departLane="best">
        <route edges="186202420#0 186202420#1 420899373 -196116988#0 5670253#0"/>
    </vehicle>
    <vehicle id="bike123" type="bike_bicycle" depart="440.14" departLane="best">
        <route edges="196116975#0 196116975#4 460065822#0 460065820 420899373 -196116988#0 420899372"/>
    </vehicle>
    <vehicle id="bike124" type="bike_bicycle" depart="443.72" departLane="best">
        <route edges="499172074#1 -499172074#1 541350711#0 541350711#1 496986969#0 496986969#1 5672752#0 5672752#1 196117083 196117092 420890023 125480074 22898530#0 22898530#2 22898530#3 22898530#4"/>
    </vehicle>
    <vehicle id="bike126" type="bike_bicycle" depart="450.88" departLane="best">
        <route edges="-499172074#0 499172074#0 499172074#1 499172074#2 499172074#3 496989355#3 382740985#0 46538371#0 433476262#6"/>
    </vehicle>
    <vehicle id="bike127" type="bike_bicycle" depart="454.46" departLane="best">
        <route edges="663543997 196117092 420890023 125480074 460065820 439801903 91383966#1"/>
    </vehicle>
    <vehicle id="bike128" type="bike_bicycle" depart="458.03" departLane="best">
        <route edges="-499172074#0 499172074#0 541350711#0 541350711#1 496986969#0 496986969#1 5672752#0 5672752#1 196116976#0"/>
    </vehicle>
    <vehicle id="bike129" type="bike_bicycle" depart="461.61" departLane="best">
        <route edges="196116976#3 324118554#1 226041032#0 226041032#3 226041032#4 569345537#4 541350711#0 541350711#1 496986969#0 496986969#1 496989355#0 618990022#7"/>
    </vehicle>
    <vehicle id="bike130" type="bike_bicycle" depart="465.19" departLane="best">
        <route edges="583505066#2"/>
    </vehicle>
    <vehicle id="bike131" type="bike_bicycle" depart="468.77" departLane="best">
        <route edges="308322447#1 496986970#1 5672752#0 5672752#1 -5672752#1"/>
    </vehicle>
    <vehicle id="bike134" type="bike_bicycle" depart="479.51" departLane="best">
        <route edges="497258108#1 420899372 -196116988#0"/>
    </vehicle>
    <vehicle id="bike136" type="bike_bicycle" depart="486.66" departLane="best">
        <route edges="499172074#0 541350711#0 541350711#1 496986969#0 496986969#1 496989355#0 618990022#7"/>
    </vehicle>
    <vehicle id="bike137" type="bike_bicycle" depart="490.24" departLane="best">
        <route edges="-5670139 195743336#0 195743336#1 499172074#0 499172074#1 499172074#2 499172074#3 499172074#5 -499172074#7"/>
    </vehicle>
    <vehicle id="bike138" type="bike_bicycle" depart="493.82" departLane="best">
        <route edges="-499172074#4 -499172074#2 -499172074#1 541350711#0 541350711#1 497258108#0 497258108#1 420899372 496986970#0 496986970#1"/>
    </vehicle>
    <vehicle id="bike139" type="bike_bicycle" depart="497.40" departLane="best">
        <route edges="196117083 -196117083 196116976#0 196116976#1 499172074#9 499172074#11"/>
    </vehicle>
    <vehicle id="bike141" type="bike_bicycle" depart="504.55" departLane="best">
        <route edges="496989355#1 496989355#3 226041032#0"/>
    </vehicle>
    <vehicle id="bike142" type="bike_bicycle" depart="508.13" departLane="best">
        <route edges="433476262#2 618990022#5 618990022#6 618990022#7 618990022#8 618990022#9 618990022#10 618990022#11"/>
    </vehicle>
    <vehicle id="bike144" type="bike_bicycle" depart="515.29" departLane="best">
        <route edges="330748499 648888142#1 648888142#2 5670873#1 -5670253#1 -5670253#0 420899372 496986970#0 496986970#1 496989355#0 496989355#1 496989355#3 226041032#0 226041032#3 226041032#4"/>
    </vehicle>
    <vehicle id="bike145" type="bike_bicycle" depart="518.87" departLane="best">
        <route edges="-195743152#0 420899373 -196116988#0 5670253#0 5670253#1 5670874#0 5670874#1 5670874#2"/>
    </vehicle>
    <vehicle id="bike147" type="bike_bicycle" depart="526.02" departLane="best">
        <route edges="5670253#1 -5670253#1 -5670253#0 420899372 496986970#0 496986970#1"/>
    </vehicle>
    <vehicle id="bike148" type="bike_bicycle" depart="529.60" departLane="best">
        <route edges="330748499 648888142#1 648888142#2 5670873#1 -5670253#1 -5670253#0 420899372 -196116988#0"/>
    </vehicle>
    <vehicle id="bike149" type="bike_bicycle" depart="533.18" departLane="best">
        <route edges="-499172074#1 541350711#0 541350711#1 497258108#0 497258108#1 576438593#0 576438593#1 576438593#2 583505066#2"/>
    </vehicle>
    <vehicle id="bike150" type="bike_bicycle" depart="536.76" departLane="best">
        <route edges="618990022#11 541350711#1 497258108#0 497258108#1 420899372 496986970#0"/>
    </vehicle>
    <vehicle id="bike151" type="bike_bicycle" depart="540.34" departLane="best">
        <route edges="569345537#3 569345537#4 541350711#0 541350711#1 497258108#0 497258108#1"/>
    </vehicle>
    <vehicle id="bike152" type="bike_bicycle" depart="543.92" departLane="best">
        <route edges="-5670253#0 5670253#0 5670253#1 -5670253#1"/>
    </vehicle>
    <vehicle id="bike153" type="bike_bicycle" depart="547.49" departLane="best">
        <route edges="226041032#0 226041032#3 226041032#4 569345537#4 541350711#0 541350711#1 496986969#0 496986969#1 496989355#0 618990022#7 618990022#8 618990022#9 618990022#10"/>
    </vehicle>
    <vehicle id="bike154" type="bike_bicycle" depart="551.07" departLane="best">
        <route edges="5672290 5670873#0 5670873#1 -5670253#1 -5670253#0 576438593#0 576438593#1 576438593#2"/>
    </vehicle>
    <vehicle id="bike155" type="bike_bicycle" depart="554.65" departLane="best">
        <route edges="618990022#10 618990022#11 541350711#1 496986969#0 496986969#1 5672752#0 5672752#1 196116976#0"/>
    </vehicle>
    <vehicle id="bike156" type="bike_bicycle" depart="558.23" departLane="best">
        <route edges="196116976#0 196116976#1 -499172074#7 -499172074#4 -499172074#2"/>
    </vehicle>
    <vehicle id="bike157" type="bike_bicycle" depart="561.81" departLane="best">
        <route edges="5670874#2 -5670874#2 -5670874#1 -5670874#0 -5670253#1 -5670253#0 576438593#0 576438593#1 576438593#2 583505066#2"/>
    </vehicle>
    <vehicle id="bike158" type="bike_bicycle" depart="565.39" departLane="best">
        <route edges="324118554#1 226041032#0 226041032#3 226041032#4 569345537#4 499172074#1 499172074#2"/>
    </vehicle>
    <vehicle id="bike159" type="bike_bicycle" depart="568.97" departLane="best">
        <route edges="-5670874#0 -5670253#1 -5670253#0 420899372 496986970#0 496986970#1 5672752#0 5672752#1 196116976#0 618990022#5 618990022#6"/>
    </vehicle>
    <vehicle id="bike161" type="bike_bicycle" depart="576.12" departLane="best">
        <route edges="5672752#1 -5672752#1 -5672752#0 -496986969#1 -496986969#0 497258108#0 497258108#1 576438593#0 576438593#1 576438593#2 583505066#2"/>
    </vehicle>
    <vehicle id="bike162" type="bike_bicycle" depart="579.70" departLane="best">
        <route edges="-226041032#3 226041032#3 226041032#4 569345537#4 541350711#0 541350711#1 497258108#0 497258108#1 420899372 -195743152#0 439801903 5670348#0 5670348#1"/>
    </vehicle>