<?xml version="1.0" encoding="UTF-8"?>
<!-- generated on 2019-02-22 14:27:15.990973 by $Id$ via randomTrips.py
  options: 
-->
<routes xmlns:xsi="http://www.w3.org/2001/XMLSchema-instance" xsi:noNamespaceSchemaLocation="http://sumo.dlr.de/xsd/routes_file.xsd">
    <vType id="bike_bicycle" vClass="bicycle">
    </vType>
    <trip id="bike0" depart="0.00" departLane="best" from="496989355#3" to="-226041032#3" type="bike_bicycle"/>
    <trip id="bike1" depart="3.58" departLane="best" from="196117083" to="196116976#3" type="bike_bicycle"/>
    <trip id="bike2" depart="7.16" departLane="best" from="5670253#0" to="5669664#1" type="bike_bicycle"/>
    <trip id="bike3" depart="10.74" departLane="best" from="618990022#0" to="-499172074#1" type="bike_bicycle"/>
    <trip id="bike4" depart="14.31" departLane="best" from="330748499" to="-226041032#3" type="bike_bicycle"/>
    <trip id="bike5" depart="17.89" departLane="best" from="195743336#0" to="46538371#0" type="bike_bicycle"/>
    <trip id="bike6" depart="21.47" departLane="best" from="-226041032#3" to="195743336#2" type="bike_bicycle"/>
    <trip id="bike7" depart="25.05" departLane="best" from="497258108#1" to="496986970#0" type="bike_bicycle"/>
    <trip id="bike8" depart="28.63" departLane="best" from="195743336#0" to="497258109" type="bike_bicycle"/>
    <trip id="bike9" depart="32.21" departLane="best" from="5672752#1" to="-196116988#0" type="bike_bicycle"/>
    <trip id="bike11" depart="39.36" departLane="best" from="22898530#4" to="-5672752#1" type="bike_bicycle"/>
    <trip id="bike12" depart="42.94" departLane="best" from="648888142#2" to="308322447#3" type="bike_bicycle"/>
    <trip id="bike13" depart="46.52" departLane="best" from="-499172074#18" to="-499172074#10" type="bike_bicycle"/>
    <trip id="bike15" depart="53.68" departLane="best" from="5672752#0" to="5670348#0" type="bike_bicycle"/>
    <trip id="bike17" depart="60.83" departLane="best" from="308322447#3" to="496986970#1" type="bike_bicycle"/>
    <trip id="bike18" depart="64.41" departLane="best" from="569345537#0" to="499172074#2" type="bike_bicycle"/>
    <trip id="bike20" depart="71.57" departLane="best" from="541350711#1" to="-458642436" type="bike_bicycle"/>
    <trip id="bike21" depart="75.15" departLane="best" from="195743336#1" to="22898530#2" type="bike_bicycle"/>
    <trip id="bike22" depart="78.72" departLane="best" from="-499172074#1" to="196116976#6" type="bike_bicycle"/>
    <trip id="bike23" depart="82.30" departLane="best" from="-499172074#2" to="226041032#4" type="bike_bicycle"/>
    <trip id="bike24" depart="85.88" departLane="best" from="496989355#1" to="324118554#1" type="bike_bicycle"/>
    <trip id="bike25" depart="89.46" departLane="best" from="308322447#1" to="196116976#0" type="bike_bicycle"/>
    <trip id="bike27" depart="96.62" departLane="best" from="497258108#0" to="499172074#11" type="bike_bicycle"/>
    <trip id="bike28" depart="100.20" departLane="best" from="-5670874#2" to="5670348#0" type="bike_bicycle"/>
    <trip id="bike29" depart="103.77" departLane="best" from="-5670874#1" to="382740985#3" type="bike_bicycle"/>
    <trip id="bike30" depart="107.35" departLane="best" from="648888157#3" to="499172074#9" type="bike_bicycle"/>
    <trip id="bike31" depart="110.93" departLane="best" from="46525065#0" to="5670139" type="bike_bicycle"/>
    <trip id="bike32" depart="114.51" departLane="best" from="569345537#4" to="5671574#0" type="bike_bicycle"/>
    <trip id="bike33" depart="118.09" departLane="best" from="196116975#0" to="-226041032#4" type="bike_bicycle"/>
    <trip id="bike34" depart="121.67" departLane="best" from="226041032#4" to="226041032#0" type="bike_bicycle"/>
    <trip id="bike35" depart="125.24" departLane="best" from="186202420#1" to="618990022#8" type="bike_bicycle"/>
    <trip id="bike37" depart="132.40" departLane="best" from="497258109" to="420899372" type="bike_bicycle"/>
    <trip id="bike38" depart="135.98" departLane="best" from="618990022#3" to="433476262#6" type="bike_bicycle"/>
    <trip id="bike39" depart="139.56" departLane="best" from="196116976#3" to="196117083" type="bike_bicycle"/>
    <trip id="bike40" depart="143.14" departLane="best" from="46525065#0" to="226041032#0" type="bike_bicycle"/>
    <trip id="bike41" depart="146.71" departLane="best" from="46583189#2" to="618990022#10" type="bike_bicycle"/>
    <trip id="bike42" depart="150.29" departLane="best" from="308322448#2" to="196116976#1" type="bike_bicycle"/>
    <trip id="bike43" depart="153.87" departLane="best" from="663543997" to="46538371#3" type="bike_bicycle"/>
    <trip id="bike44" depart="157.45" departLane="best" from="-499172074#18" to="-458642436" type="bike_bicycle"/>
    <trip id="bike45" depart="161.03" departLane="best" from="-499172074#4" to="499172074#3" type="bike_bicycle"/>
    <trip id="bike46" depart="164.61" departLane="best" from="5672290" to="433476262#0" type="bike_bicycle"/>
    <trip id="bike47" depart="168.18" departLane="best" from="-497258109" to="382740985#3" type="bike_bicycle"/>
    <trip id="bike48" depart="171.76" departLane="best" from="663543997" to="46583189#2" type="bike_bicycle"/>
    <trip id="bike49" depart="175.34" departLane="best" from="648888157#0" to="576438593#2" type="bike_bicycle"/>
    <trip id="bike50" depart="178.92" departLane="best" from="-196116988#0" to="5670253#1" type="bike_bicycle"/>
    <trip id="bike51" depart="182.50" departLane="best" from="499172074#3" to="496986969#1" type="bike_bicycle"/>
    <trip id="bike53" depart="189.66" departLane="best" from="-499172074#7" to="433476262#2" type="bike_bicycle"/>
    <trip id="bike56" depart="200.39" departLane="best" from="433476262#4" to="195743336#0" type="bike_bicycle"/>
    <trip id="bike58" depart="207.55" departLane="best" from="198924778#1" to="499172074#9" type="bike_bicycle"/>
    <trip id="bike59" depart="211.13" departLane="best" from="496986969#1" to="-5672752#1" type="bike_bicycle"/>
    <trip id="bike60" depart="214.70" departLane="best" from="5670873#1" to="496986969#1" type="bike_bicycle"/>
    <trip id="bike61" depart="218.28" departLane="best" from="5670874#2" to="46583189#2" type="bike_bicycle"/>
    <trip id="bike62" depart="221.86" departLane="best" from="-195743152#0" to="308322447#1" type="bike_bicycle"/>
    <trip id="bike63" depart="225.44" departLane="best" from="-226041032#1" to="618990022#6" type="bike_bicycle"/>
    <trip id="bike65" depart="232.60" departLane="best" from="226041032#0" to="-477823038" type="bike_bicycle"/>
    <trip id="bike67" depart="239.75" departLane="best" from="-499172074#10" to="460065820" type="bike_bicycle"/>
    <trip id="bike68" depart="243.33" departLane="best" from="-499172074#0" to="5670874#0" type="bike_bicycle"/>
    <trip id="bike69" depart="246.91" departLane="best" from="5670874#0" to="-5670874#0" type="bike_bicycle"/>
    <trip id="bike70" depart="250.49" departLane="best" from="422298615#4" to="496986970#1" type="bike_bicycle"/>
    <trip id="bike72" depart="257.64" departLane="best" from="330748499" to="196116976#0" type="bike_bicycle"/>
    <trip id="bike73" depart="261.22" departLane="best" from="460065820" to="5670348#0" type="bike_bicycle"/>
    <trip id="bike75" depart="268.38" departLane="best" from="663543997" to="505582406" type="bike_bicycle"/>
    <trip id="bike76" depart="271.96" departLane="best" from="382740985#0" to="46538371#3" type="bike_bicycle"/>
    <trip id="bike77" depart="275.54" departLane="best" from="-505582406" to="196116976#3" type="bike_bicycle"/>
    <trip id="bike78" depart="279.11" departLane="best" from="22898530#3" to="497258109" type="bike_bicycle"/>
    <trip id="bike79" depart="282.69" departLane="best" from="196116975#0" to="196116976#3" type="bike_bicycle"/>
    <trip id="bike80" depart="286.27" departLane="best" from="-499172074#0" to="499172074#5" type="bike_bicycle"/>
    <trip id="bike81" depart="289.85" departLane="best" from="196116975#0" to="618990022#11" type="bike_bicycle"/>
    <trip id="bike83" depart="297.01" departLane="best" from="196116975#0" to="5669664#0" type="bike_bicycle"/>
    <trip id="bike84" depart="300.59" departLane="best" from="186202420#1" to="-5670874#0" type="bike_bicycle"/>
    <trip id="bike85" depart="304.16" departLane="best" from="618990022#7" to="496989355#3" type="bike_bicycle"/>
    <trip id="bike86" depart="307.74" departLane="best" from="422298615#4" to="5671574#1" type="bike_bicycle"/>
    <trip id="bike87" depart="311.32" departLane="best" from="5672752#0" to="195743336#2" type="bike_bicycle"/>
    <trip id="bike88" depart="314.90" departLane="best" from="-499172074#18" to="433476262#1" type="bike_bicycle"/>
    <trip id="bike89" depart="318.48" departLane="best" from="330748499" to="433476262#6" type="bike_bicycle"/>
    <trip id="bike91" depart="325.63" departLane="best" from="648888157#2" to="-499172074#2" type="bike_bicycle"/>
    <trip id="bike92" depart="329.21" departLane="best" from="324118554#1" to="308322447#3" type="bike_bicycle"/>
    <trip id="bike94" depart="336.37" departLane="best" from="-570158316" to="433476262#4" type="bike_bicycle"/>
    <trip id="bike95" depart="339.95" departLane="best" from="330748499" to="226041032#4" type="bike_bicycle"/>
    <trip id="bike96" depart="343.53" departLane="best" from="196116976#0" to="618990022#5" type="bike_bicycle"/>
    <trip id="bike97" depart="347.10" departLane="best" from="420890023" to="576438593#2" type="bike_bicycle"/>
    <trip id="bike98" depart="350.68" departLane="best" from="460065822#0" to="-477823038" type="bike_bicycle"/>
    <trip id="bike99" depart="354.26" departLane="best" from="663543997" to="570158316" type="bike_bicycle"/>
    <trip id="bike100" depart="357.84" departLane="best" from="648888157#0" to="618990022#5" type="bike_bicycle"/>
    <trip id="bike102" depart="365.00" departLane="best" from="433476262#1" to="196116976#1" type="bike_bicycle"/>
    <trip id="bike103" depart="368.57" departLane="best" from="308322448#2" to="-477823038" type="bike_bicycle"/>
    <trip id="bike105" depart="375.73" departLane="best" from="196116976#3" to="5671574#1" type="bike_bicycle"/>
    <trip id="bike106" depart="379.31" departLane="best" from="420899373" to="433476262#0" type="bike_bicycle"/>
    <trip id="bike107" depart="382.89" departLane="best" from="648888142#2" to="91383966#1" type="bike_bicycle"/>
    <trip id="bike108" depart="386.47" departLane="best" from="46525065#0" to="5670253#0" type="bike_bicycle"/>
    <trip id="bike109" depart="390.05" departLane="best" from="-5670874#0" to="22898530#3" type="bike_bicycle"/>
    <trip id="bike110" depart="393.62" departLane="best" from="648888157#0" to="497258108#0" type="bike_bicycle"/>
    <trip id="bike112" depart="400.78" departLane="best" from="-496986969#1" to="497258108#1" type="bike_bicycle"/>
    <trip id="bike113" depart="404.36" departLane="best" from="433476262#4" to="576438593#0" type="bike_bicycle"/>
    <trip id="bike115" depart="411.52" departLane="best" from="-499172074#1" to="195743336#1" type="bike_bicycle"/>
    <trip id="bike116" depart="415.09" departLane="best" from="477823038" to="5669664#1" type="bike_bicycle"/>
    <trip id="bike117" depart="418.67" departLane="best" from="196116975#0" to="-5670253#0" type="bike_bicycle"/>
    <trip id="bike118" depart="422.25" departLane="best" from="618990022#0" to="196117083" type="bike_bicycle"/>
    <trip id="bike119" depart="425.83" departLane="best" from="477823038" to="499172074#2" type="bike_bicycle"/>
    <trip id="bike120" depart="429.41" departLane="best" from="324118558" to="497258108#1" type="bike_bicycle"/>
    <trip id="bike121" depart="432.99" departLane="best" from="439933933" to="618990022#7" type="bike_bicycle"/>
    <trip id="bike122" depart="436.56" departLane="best" from="186202420#0" to="5670253#0" type="bike_bicycle"/>
    <trip id="bike123" depart="440.14" departLane="best" from="196116975#0" to="420899372" type="bike_bicycle"/>
    <trip id="bike124" depart="443.72" departLane="best" from="499172074#1" to="22898530#4" type="bike_bicycle"/>
    <trip id="bike126" depart="450.88" departLane="best" from="-499172074#0" to="433476262#6" type="bike_bicycle"/>
    <trip id="bike127" depart="454.46" departLane="best" from="663543997" to="91383966#1" type="bike_bicycle"/>
    <trip id="bike128" depart="458.03" departLane="best" from="-499172074#0" to="196116976#0" type="bike_bicycle"/>
    <trip id="bike129" depart="461.61" departLane="best" from="196116976#3" to="618990022#7" type="bike_bicycle"/>
    <trip id="bike130" depart="465.19" departLane="best" from="583505066#2" to="583505066#2" type="bike_bicycle"/>
    <trip id="bike131" depart="468.77" departLane="best" from="308322447#1" to="-5672752#1" type="bike_bicycle"/>
    <trip id="bike134" depart="479.51" departLane="best" from="497258108#1" to="-196116988#0" type="bike_bicycle"/>
    <trip id="bike136" depart="486.66" departLane="best" from="499172074#0" to="618990022#7" type="bike_bicycle"/>
    <trip id="bike137" depart="490.24" departLane="best" from="-5670139" to="-499172074#7" type="bike_bicycle"/>
    <trip id="bike138" depart="493.82" departLane="best" from="-499172074#4" to="496986970#1" type="bike_bicycle"/>
    <trip id="bike139" depart="497.40" departLane="best" from="196117083" to="499172074#11" type="bike_bicycle"/>
    <trip id="bike141" depart="504.55" departLane="best" from="496989355#1" to="226041032#0" type="bike_bicycle"/>
    <trip id="bike142" depart="508.13" departLane="best" from="433476262#2" to="618990022#11" type="bike_bicycle"/>
    <trip id="bike144" depart="515.29" departLane="best" from="330748499" to="226041032#4" type="bike_bicycle"/>
    <trip id="bike145" depart="518.87" departLane="best" from="-195743152#0" to="5670874#2" type="bike_bicycle"/>
    <trip id="bike147" depart="526.02" departLane="best" from="5670253#1" to="496986970#1" type="bike_bicycle"/>
    <trip id="bike148" depart="529.60" departLane="best" from="330748499" to="-196116988#0" type="bike_bicycle"/>
    <trip id="bike149" depart="533.18" departLane="best" from="-499172074#1" to="583505066#2" type="bike_bicycle"/>
    <trip id="bike150" depart="536.76" departLane="best" from="618990022#11" to="496986970#0" type="bike_bicycle"/>
    <trip id="bike151" depart="540.34" departLane="best" from="569345537#3" to="497258108#1" type="bike_bicycle"/>
    <trip id="bike152" depart="543.92" departLane="best" from="-5670253#0" to="-5670253#1" type="bike_bicycle"/>
    <trip id="bike153" depart="547.49" departLane="best" from="226041032#0" to="618990022#10" type="bike_bicycle"/>
    <trip id="bike154" depart="551.07" departLane="best" from="5672290" to="576438593#2" type="bike_bicycle"/>
    <trip id="bike155" depart="554.65" departLane="best" from="618990022#10" to="196116976#0" type="bike_bicycle"/>
    <trip id="bike156" depart="558.23" departLane="best" from="196116976#0" to="-499172074#2" type="bike_bicycle"/>
    <trip id="bike157" depart="561.81" departLane="best" from="5670874#2" to="583505066#2" type="bike_bicycle"/>
    <trip id="bike158" depart="565.39" departLane="best" from="324118554#1" to="499172074#2" type="bike_bicycle"/>
    <trip id="bike159" depart="568.97" departLane="best" from="-5670874#0" to="618990022#6" type="bike_bicycle"/>
    <trip id="bike161" depart="576.12" departLane="best" from="5672752#1" to="583505066#2" type="bike_bicycle"/>
    <trip id="bike162" depart="579.70" departLane="best" from="-226041032#3" to="5670348#1" type="bike_bicycle"/>
    <trip id="bike163" depart="583.28" departLane="best" from="22898530#2" to="618990022#6" type="bike_bicycle"/>
    <trip id="bike164" depart="586.86" departLane="best" from="5672290" to="576438593#2" type="bike_bicycle"/>
    <trip id="bike165" depart="590.44" departLane="best" from="5672752#1" to="226041032#0" type="bike_bicycle"/>
    <trip id="bike168" depart="601.17" departLane="best" from="195743336#1" to="5672951#1" type="bike_bicycle"/>
    <trip id="bike170" depart="608.33" departLane="best" from="5672290" to="196116976#5" type="bike_bicycle"/>
    <trip id="bike171" depart="611.91" departLane="best" from="-226041032#1" to="195743336#2" type="bike_bicycle"/>
    <trip id="bike172" depart="615.48" departLane="best" from="22898530#2" to="576438593#2" type="bike_bicycle"/>
    <trip id="bike173" depart="619.06" departLane="best" from="648888157#0" to="226041032#4" type="bike_bicycle"/>
    <trip id="bike174" depart="622.64" departLane="best" from="496989355#3" to="420899373" type="bike_bicycle"/>
    <trip id="bike175" depart="626.22" departLane="best" from="648888157#1" to="496986969#0" type="bike_bicycle"/>
    <trip id="bike176" depart="629.80" departLane="best" from="618990022#8" to="-499172074#7" type="bike_bicycle"/>
    <trip id="bike177" depart="633.38" departLane="best" from="648888157#0" to="195743336#0" type="bike_bicycle"/>
    <trip id="bike178" depart="636.95" departLane="best" from="648888142#2" to="226041032#0" type="bike_bicycle"/>
    <trip id="bike179" depart="640.53" departLane="best" from="-499172074#4" to="433476262#2" type="bike_bicycle"/>
    <trip id="bike181" depart="647.69" departLane="best" from="496986969#1" to="46538371#3" type="bike_bicycle"/>
    <trip id="bike182" depart="651.27" departLane="best" from="308322447#4" to="497258108#0" type="bike_bicycle"/>
    <trip id="bike184" depart="658.43" departLane="best" from="-195743152#0" to="618990022#5" type="bike_bicycle"/>
    <trip id="bike185" depart="662.00" departLane="best" from="460065820" to="5670253#0" type="bike_bicycle"/>
    <trip id="bike186" depart="665.58" departLane="best" from="5670253#1" to="5669664#0" type="bike_bicycle"/>
    <trip id="bike187" depart="669.16" departLane="best" from="308322447#1" to="-496986969#1" type="bike_bicycle"/>
    <trip id="bike188" depart="672.74" departLane="best" from="499172074#0" to="308322447#2" type="bike_bicycle"/>
    <trip id="bike189" depart="676.32" departLane="best" from="226041032#3" to="576438593#0" type="bike_bicycle"/>
    <trip id="bike190" depart="679.90" departLane="best" from="5669664#1" to="22898530#4" type="bike_bicycle"/>
    <trip id="bike192" depart="687.05" departLane="best" from="324118554#1" to="22898530#3" type="bike_bicycle"/>
    <trip id="bike193" depart="690.63" departLane="best" from="-505582406" to="422298615#4" type="bike_bicycle"/>
    <trip id="bike194" depart="694.21" departLane="best" from="618990022#8" to="5670139" type="bike_bicycle"/>
    <trip id="bike195" depart="697.79" departLane="best" from="618990022#11" to="499172074#11" type="bike_bicycle"/>
    <trip id="bike196" depart="701.37" departLane="best" from="198924778#1" to="496986970#0" type="bike_bicycle"/>
    <trip id="bike197" depart="704.94" departLane="best" from="-195743152#0" to="22898530#2" type="bike_bicycle"/>
    <trip id="bike198" depart="708.52" departLane="best" from="330748499" to="497258108#1" type="bike_bicycle"/>
    <trip id="bike199" depart="712.10" departLane="best" from="497258109" to="433476262#6" type="bike_bicycle"/>
    <trip id="bike200" depart="715.68" departLane="best" from="420890023" to="196116976#1" type="bike_bicycle"/>
    <trip id="bike201" depart="719.26" departLane="best" from="422298615#4" to="618990022#10" type="bike_bicycle"/>
    <trip id="bike202" depart="722.84" departLane="best" from="5672290" to="186202420#0" type="bike_bicycle"/>
    <trip id="bike203" depart="726.41" departLane="best" from="-499172074#10" to="46538371#3" type="bike_bicycle"/>
    <trip id="bike204" depart="729.99" departLane="best" from="496989355#1" to="308322447#2" type="bike_bicycle"/>
    <trip id="bike206" depart="737.15" departLane="best" from="499172074#1" to="196116976#3" type="bike_bicycle"/>
    <trip id="bike207" depart="740.73" departLane="best" from="125480074" to="-226041032#3" type="bike_bicycle"/>
    <trip id="bike208" depart="744.31" departLane="best" from="196116975#4" to="439801903" type="bike_bicycle"/>
    <trip id="bike210" depart="751.46" departLane="best" from="324118558" to="499172074#5" type="bike_bicycle"/>
    <trip id="bike212" depart="758.62" departLane="best" from="433476262#3" to="196117083" type="bike_bicycle"/>
    <trip id="bike213" depart="762.20" departLane="best" from="497258109" to="-195743152#0" type="bike_bicycle"/>
    <trip id="bike215" depart="769.36" departLane="best" from="-499172074#4" to="433476262#0" type="bike_bicycle"/>
    <trip id="bike217" depart="776.51" departLane="best" from="439801903" to="-477823038" type="bike_bicycle"/>
    <trip id="bike218" depart="780.09" departLane="best" from="196116976#0" to="576438593#0" type="bike_bicycle"/>
    <trip id="bike219" depart="783.67" departLane="best" from="420899373" to="5672752#1" type="bike_bicycle"/>
    <trip id="bike220" depart="787.25" departLane="best" from="499172074#1" to="91383966#1" type="bike_bicycle"/>
    <trip id="bike221" depart="790.83" departLane="best" from="477823038" to="618990022#9" type="bike_bicycle"/>
    <trip id="bike222" depart="794.40" departLane="best" from="618990022#0" to="499172074#11" type="bike_bicycle"/>
    <trip id="bike223" depart="797.98" departLane="best" from="5669664#1" to="46538371#0" type="bike_bicycle"/>
    <trip id="bike224" depart="801.56" departLane="best" from="569345537#0" to="496986970#0" type="bike_bicycle"/>
    <trip id="bike225" depart="805.14" departLane="best" from="618990022#10" to="5670348#1" type="bike_bicycle"/>
    <trip id="bike227" depart="812.30" departLane="best" from="196116976#0" to="499172074#9" type="bike_bicycle"/>
    <trip id="bike228" depart="815.87" departLane="best" from="5670874#0" to="46583189#1" type="bike_bicycle"/>
    <trip id="bike229" depart="819.45" departLane="best" from="496989355#0" to="226041032#4" type="bike_bicycle"/>
    <trip id="bike230" depart="823.03" departLane="best" from="-499172074#1" to="22898530#0" type="bike_bicycle"/>
    <trip id="bike231" depart="826.61" departLane="best" from="196117083" to="308322446" type="bike_bicycle"/>
    <trip id="bike232" depart="830.19" departLane="best" from="460065820" to="-5670874#1" type="bike_bicycle"/>
    <trip id="bike234" depart="837.34" departLane="best" from="541350711#1" to="-496986969#0" type="bike_bicycle"/>
    <trip id="bike235" depart="840.92" departLane="best" from="324118558" to="496986969#1" type="bike_bicycle"/>
    <trip id="bike237" depart="848.08" departLane="best" from="330748499" to="618990022#11" type="bike_bicycle"/>
    <trip id="bike240" depart="858.82" departLane="best" from="308322447#3" to="-195743152#0" type="bike_bicycle"/>
    <trip id="bike244" depart="873.13" departLane="best" from="460065821#1" to="499172074#1" type="bike_bicycle"/>
    <trip id="bike245" depart="876.71" departLane="best" from="195743336#0" to="196116976#1" type="bike_bicycle"/>
    <trip id="bike247" depart="883.86" departLane="best" from="22898530#3" to="5670139" type="bike_bicycle"/>
    <trip id="bike248" depart="887.44" departLane="best" from="324118554#1" to="186202420#0" type="bike_bicycle"/>
    <trip id="bike249" depart="891.02" departLane="best" from="422298615#1" to="-5670253#1" type="bike_bicycle"/>
    <trip id="bike250" depart="894.60" departLane="best" from="496986970#1" to="-226041032#3" type="bike_bicycle"/>
    <trip id="bike251" depart="898.18" departLane="best" from="308322448#1" to="496989355#1" type="bike_bicycle"/>
    <trip id="bike252" depart="901.76" departLane="best" from="-226041032#3" to="505582406" type="bike_bicycle"/>
    <trip id="bike253" depart="905.33" departLane="best" from="-5670139" to="433476262#6" type="bike_bicycle"/>
    <trip id="bike254" depart="908.91" departLane="best" from="-496986969#0" to="382740985#3" type="bike_bicycle"/>
    <trip id="bike255" depart="912.49" departLane="best" from="186202420#1" to="308322447#1" type="bike_bicycle"/>
    <trip id="bike256" depart="916.07" departLane="best" from="5670873#1" to="382740985#3" type="bike_bicycle"/>
    <trip id="bike258" depart="923.23" departLane="best" from="196116976#0" to="-499172074#0" type="bike_bicycle"/>
    <trip id="bike259" depart="926.80" departLane="best" from="-226041032#1" to="496986969#1" type="bike_bicycle"/>
    <trip id="bike260" depart="930.38" departLane="best" from="663543997" to="308322448#1" type="bike_bicycle"/>
    <trip id="bike261" depart="933.96" departLane="best" from="497258108#1" to="5671574#1" type="bike_bicycle"/>
    <trip id="bike263" depart="941.12" departLane="best" from="618990022#9" to="195743336#2" type="bike_bicycle"/>
    <trip id="bike264" depart="944.70" departLane="best" from="-226041032#1" to="-5672752#0" type="bike_bicycle"/>
    <trip id="bike265" depart="948.28" departLane="best" from="-505582406" to="5669664#0" type="bike_bicycle"/>
    <trip id="bike266" depart="951.85" departLane="best" from="46525065#0" to="196116976#1" type="bike_bicycle"/>
    <trip id="bike267" depart="955.43" departLane="best" from="541350711#0" to="5670874#1" type="bike_bicycle"/>
    <trip id="bike268" depart="959.01" departLane="best" from="-5670874#2" to="499172074#11" type="bike_bicycle"/>
    <trip id="bike271" depart="969.75" departLane="best" from="-499172074#4" to="-226041032#3" type="bike_bicycle"/>
    <trip id="bike272" depart="973.32" departLane="best" from="226041032#3" to="5670139" type="bike_bicycle"/>
    <trip id="bike273" depart="976.90" departLane="best" from="648888142#2" to="420899373" type="bike_bicycle"/>
    <trip id="bike274" depart="980.48" departLane="best" from="5669664#0" to="-497258109" type="bike_bicycle"/>
    <trip id="bike275" depart="984.06" departLane="best" from="499172074#5" to="499172074#3" type="bike_bicycle"/>
    <trip id="bike276" depart="987.64" departLane="best" from="-499172074#2" to="5670874#2" type="bike_bicycle"/>
    <trip id="bike279" depart="998.37" departLane="best" from="5670874#2" to="308322447#4" type="bike_bicycle"/>
    <trip id="bike280" depart="1001.95" departLane="best" from="330748499" to="382740985#0" type="bike_bicycle"/>
    <trip id="bike281" depart="1005.53" departLane="best" from="433476262#4" to="308322447#3" type="bike_bicycle"/>
    <trip id="bike285" depart="1019.84" departLane="best" from="541350711#1" to="433476262#2" type="bike_bicycle"/>
    <trip id="bike288" depart="1030.58" departLane="best" from="460065820" to="460065820" type="bike_bicycle"/>
    <trip id="bike291" depart="1041.31" departLane="best" from="569345537#0" to="-499172074#1" type="bike_bicycle"/>
    <trip id="bike293" depart="1048.47" departLane="best" from="422298615#1" to="499172074#11" type="bike_bicycle"/>
    <trip id="bike294" depart="1052.05" departLane="best" from="308322447#3" to="-226041032#3" type="bike_bicycle"/>
    <trip id="bike296" depart="1059.21" departLane="best" from="186202420#1" to="5672752#0" type="bike_bicycle"/>
    <trip id="bike297" depart="1062.78" departLane="best" from="22898530#4" to="583505066#2" type="bike_bicycle"/>
    <trip id="bike298" depart="1066.36" departLane="best" from="541350711#0" to="226041032#4" type="bike_bicycle"/>
    <trip id="bike299" depart="1069.94" departLane="best" from="-196116988#0" to="618990022#9" type="bike_bicycle"/>
    <trip id="bike300" depart="1073.52" departLane="best" from="-499172074#10" to="5670253#1" type="bike_bicycle"/>
    <trip id="bike301" depart="1077.10" departLane="best" from="433476262#2" to="5670874#0" type="bike_bicycle"/>
    <trip id="bike302" depart="1080.68" departLane="best" from="499172074#5" to="505582406" type="bike_bicycle"/>
    <trip id="bike303" depart="1084.25" departLane="best" from="433476262#2" to="5672752#0" type="bike_bicycle"/>
    <trip id="bike304" depart="1087.83" departLane="best" from="-499172074#18" to="196116976#3" type="bike_bicycle"/>
    <trip id="bike306" depart="1094.99" departLane="best" from="46583189#2" to="439801903" type="bike_bicycle"/>
    <trip id="bike307" depart="1098.57" departLane="best" from="458642436" to="433476262#0" type="bike_bicycle"/>
    <trip id="bike308" depart="1102.15" departLane="best" from="5670253#1" to="308322447#2" type="bike_bicycle"/>
    <trip id="bike309" depart="1105.72" departLane="best" from="541350711#0" to="226041032#3" type="bike_bicycle"/>
    <trip id="bike310" depart="1109.30" departLane="best" from="196116976#0" to="-5670253#0" type="bike_bicycle"/>
    <trip id="bike311" depart="1112.88" departLane="best" from="-570158316" to="-5670253#0" type="bike_bicycle"/>
    <trip id="bike312" depart="1116.46" departLane="best" from="458642436" to="5670874#0" type="bike_bicycle"/>
    <trip id="bike313" depart="1120.04" departLane="best" from="-5672752#1" to="196116976#1" type="bike_bicycle"/>
    <trip id="bike314" depart="1123.62" departLane="best" from="433476262#1" to="5670253#1" type="bike_bicycle"/>
    <trip id="bike315" depart="1127.20" departLane="best" from="648888157#1" to="46583189#2" type="bike_bicycle"/>
    <trip id="bike316" depart="1130.77" departLane="best" from="196117092" to="-499172074#2" type="bike_bicycle"/>
    <trip id="bike317" depart="1134.35" departLane="best" from="-570158316" to="196116976#5" type="bike_bicycle"/>
    <trip id="bike318" depart="1137.93" departLane="best" from="-5672752#1" to="-196117083" type="bike_bicycle"/>
    <trip id="bike319" depart="1141.51" departLane="best" from="458642436" to="226041032#3" type="bike_bicycle"/>
    <trip id="bike320" depart="1145.09" departLane="best" from="648888157#0" to="496986970#1" type="bike_bicycle"/>
    <trip id="bike321" depart="1148.67" departLane="best" from="499172074#9" to="-5670253#1" type="bike_bicycle"/>
    <trip id="bike324" depart="1159.40" departLane="best" from="422298615#4" to="433476262#3" type="bike_bicycle"/>
    <trip id="bike325" depart="1162.98" departLane="best" from="-5672752#1" to="-477823038" type="bike_bicycle"/>
    <trip id="bike327" depart="1170.14" departLane="best" from="569345537#0" to="420899373" type="bike_bicycle"/>