<?xml version="1.0" encoding="UTF-8"?>

<!-- generated on 02/22/19 14:27:13 by Eclipse SUMO polyconvert Version 1.0.1
<configuration xmlns:xsi="http://www.w3.org/2001/XMLSchema-instance" xsi:noNamespaceSchemaLocation="http://sumo.dlr.de/xsd/polyconvertConfiguration.xsd">

    <input>
        <net-file value="C:\Users\rahul\Sumo\tools\2019-02-22-14-27-10\osm.net.xml"/>
        <osm-files value="C:\Users\rahul\Sumo\tools\2019-02-22-14-27-10\osm_bbox.osm.xml"/>
        <osm.keep-full-type value="true"/>
        <type-file value="C:\Users\rahul\Sumo\data\typemap\osmPolyconvert.typ.xml"/>
    </input>

    <output>
        <output-file value="C:\Users\rahul\Sumo\tools\2019-02-22-14-27-10\osm.poly.xml"/>
    </output>

    <processing>
        <poi-layer-offset value="5"/>
    </processing>

    <report>
        <verbose value="true"/>
    </report>

</configuration>
-->

<additional xmlns:xsi="http://www.w3.org/2001/XMLSchema-instance" xsi:noNamespaceSchemaLocation="http://sumo.dlr.de/xsd/additional_file.xsd">
    <location netOffset="-584325.77,-4508126.03" convBoundary="0.00,-0.00,4501.05,9009.81" origBoundary="-74.001559,40.719744,-73.947471,40.800521" projParameter="+proj=utm +zone=18 +ellps=WGS84 +datum=WGS84 +units=m +no_defs"/>

    <poly id="109269254" type="leisure.common" color="207,245,201" fill="1" layer="-2.00" shape="1585.379039,5411.566985 1582.258521,5409.887645 1579.361556,5407.855627 1576.713076,5405.504528 1574.354895,5402.868139 1572.328823,5399.980252 1570.642916,5396.874267 1569.330545,5393.583877 1568.416258,5390.175980 1567.899669,5386.683879 1567.788703,5383.152074 1568.091157,5379.636167 1568.806516,5376.180562 1569.908947,5372.829367 1571.398062,5369.615886 1573.256212,5366.606526 1574.370769,5365.120652 1576.133190,5363.087181 1578.156215,5361.145552 1579.954139,5359.689811 1583.560173,5357.355766 1587.472427,5355.547082 1591.588981,5354.318087 1595.850753,5353.668098 1600.147770,5353.618042 1604.420821,5354.178334 1608.568887,5355.325598 1612.516265,5357.036750 1616.178686,5359.299710 1619.481093,5362.035890 1622.373105,5365.222500 1624.050882,5367.573450 1625.027963,5369.205721 1626.954935,5373.358130 1628.205306,5377.624810 1628.821017,5382.028452 1628.786351,5386.468953 1628.102210,5390.868608 1626.778323,5395.116507 1624.849483,5399.124236 1622.358790,5402.814581 1619.349474,5406.099225 1615.889827,5408.912349 1612.064890,5411.199428 1607.942953,5412.894642 1603.608670,5413.976771 1599.172016,5414.424885 1594.709074,5414.228765 1591.684879,5413.705173 1589.185622,5413.043344 1585.379039,5411.566985"/>
    <poly id="109269255" type="amenity.fountain" color="237,199,199" fill="1" layer="-1.00" shape="1580.432952,5371.530371 1586.169119,5375.482715 1584.687923,5378.740694 1583.889189,5382.106513 1583.914136,5385.048900 1584.644932,5388.265932 1586.502017,5391.895713 1588.693206,5394.374736 1591.757810,5396.508623 1588.937093,5403.181656 1586.647727,5401.889435 1584.881496,5400.614386 1582.768522,5398.669180 1580.521474,5395.911954 1578.932467,5393.184567 1577.800107,5390.384763 1577.018284,5387.200448 1576.732019,5383.500075 1577.070426,5379.795847 1577.900726,5376.619133 1578.934037,5374.133113 1580.089179,5372.059291 1580.432952,5371.530371"/>
    <poly id="109269257" type="amenity.fountain" color="237,199,199" fill="1" layer="-1.00" shape="1612.832361,5379.256037 1619.228031,5376.565808 1620.005263,5379.417008 1620.422806,5383.440872 1620.071428,5387.533527 1618.970716,5391.462052 1617.250489,5394.950399 1616.339770,5396.327610 1614.678622,5398.362247 1608.835875,5402.868564 1603.401910,5404.881622 1599.783390,5405.383639 1596.450079,5405.311651 1597.807568,5398.166448 1600.788731,5398.034509 1603.938237,5397.216186 1606.374745,5396.012112 1609.450869,5393.516498 1611.767867,5390.246019 1613.119449,5386.520245 1613.545042,5383.305530 1612.832361,5379.256037"/>
    <poly id="109269258" type="amenity.fountain" color="237,199,199" fill="1" layer="-1.00" shape="1609.764981,5373.724818 1607.007812,5371.283629 1604.037909,5369.717051 1601.606799,5369.000497 1597.465315,5368.741494 1594.174383,5369.380543 1591.680593,5370.428525 1589.580125,5371.769730 1585.287152,5366.379733 1587.566917,5364.862971 1592.631102,5362.712384 1595.922295,5362.051132 1598.000543,5361.897612 1601.020828,5362.032582 1603.068219,5362.356103 1606.878302,5363.532750 1610.452650,5365.383902 1613.155123,5367.446980 1614.674027,5368.941210 1615.507053,5369.894571 1609.764981,5373.724818"/>
    <poly id="109269297" type="building.yes" color="255,230,230" fill="1" layer="-1.00" shape="1581.490226,5320.416749 1585.547461,5319.209267 1588.830490,5318.525713 1593.916811,5318.107334 1599.895952,5317.854751 1604.848205,5318.078755 1602.425712,5294.069769 1575.231598,5309.108657 1581.490226,5320.416749"/>
    <poly id="109269297#1" type="tourism.museum" color="207,245,201" fill="1" layer="-2.00" shape="1581.490226,5320.416749 1585.547461,5319.209267 1588.830490,5318.525713 1593.916811,5318.107334 1599.895952,5317.854751 1604.848205,5318.078755 1602.425712,5294.069769 1575.231598,5309.108657 1581.490226,5320.416749"/>
    <poly id="109269750" type="leisure.park" color="207,245,201" fill="1" layer="-2.00" shape="2310.665810,4914.142420 2271.970957,4935.006202 2335.405336,5052.122369 2339.452960,5054.645547 2345.539853,5056.748504 2352.559329,5057.063813 2356.646062,5055.524024 2363.024121,5052.223592 2369.643456,5047.782456 2372.183470,5043.526712 2373.361890,5039.488175 2373.398930,5036.324458 2371.910293,5028.646455 2310.665810,4914.142420"/>
    <poly id="115086760" type="natural.bare_rock" color="140,196,107" fill="1" layer="-4.00" shape="2124.476292,5355.591214 2123.033240,5362.790847 2128.305481,5367.415441 2134.677293,5368.955342 2137.991871,5366.296192 2136.028396,5360.233625 2124.545221,5354.748246 2124.476292,5355.591214"/>
    <poly id="128582381" type="leisure.playground" color="207,245,201" fill="1" layer="-2.00" shape="1938.852775,5414.877372 1944.769965,5412.692552 1952.281171,5409.171833 1958.208299,5405.410617 1970.730138,5392.755627 1995.810951,5411.333427 1986.532253,5423.104692 1995.495777,5430.403460 2004.250361,5437.522166 2009.610843,5433.132657 2035.312226,5452.761449 2037.751956,5457.075384 2038.152411,5461.820727 2038.076146,5468.359079 2036.871555,5474.662224 2034.072412,5481.624009 2022.304395,5481.031567 2017.091817,5481.425972 2010.060080,5482.920498 2005.965346,5484.449276 1998.663135,5488.871660 1991.369244,5493.305251 1986.560009,5498.200801 1982.868363,5504.252916 1981.019680,5507.162367 1977.147531,5509.148948 1972.734256,5499.627267 1967.598028,5493.472255 1964.490442,5487.796082 1959.566157,5483.009125 1951.693966,5478.398764 1945.609908,5476.074110 1935.897340,5474.384426 1932.064630,5472.985297 1928.909678,5471.372020 1926.681985,5468.415069 1925.595682,5464.572130 1925.632536,5461.408412 1927.941571,5457.382981 1931.138559,5455.388509 1935.685898,5453.409769 1939.542286,5452.777460 1943.647500,5450.349484 1946.394054,5447.894576 1948.687453,5445.212344 1948.030644,5443.628168 1944.412599,5443.363966 1940.341526,5442.861340 1936.265150,5442.813848 1932.408757,5443.446159 1929.235429,5443.409191 1925.622686,5442.689867 1922.030889,5440.172220 1920.706233,5437.225791 1919.172194,5432.689298 1919.216803,5428.859534 1920.840192,5425.725398 1922.696757,5422.138786 1926.121079,5419.469720 1930.218546,5417.707782 1938.852775,5414.877372"/>
    <poly id="134658131" type="building.yes" color="255,230,230" fill="1" layer="-1.00" shape="1546.421590,5109.022764 1545.670407,5107.559658 1538.983717,5095.291849 1534.479242,5087.012852 1534.239628,5086.565984 1530.024755,5078.789949 1525.760390,5070.913423 1522.504348,5064.891563 1519.248044,5058.891905 1517.529300,5055.696738 1564.149219,5031.057418 1568.145820,5048.190137 1574.270878,5076.127835 1577.542926,5092.408385 1546.421590,5109.022764"/>
    <poly id="136507647" type="tourism.theme_park" color="207,245,201" fill="1" layer="-2.00" shape="2195.883373,5376.109615 2195.934305,5378.974599 2196.825573,5381.438618 2198.400593,5383.899524 2200.708696,5385.747270 2204.802260,5387.216201 2209.803548,5388.296059 2214.710952,5388.741994 2222.100032,5388.461985 2227.469017,5387.692072 2232.419779,5386.595308 2238.902939,5384.384030 2246.183980,5381.071857 2249.483535,5378.978798 2252.363568,5376.669891 2254.058269,5374.669092 2254.910158,5371.836868 2254.615404,5368.891316 2253.301638,5365.023462 2246.336491,5342.759660 2241.036980,5328.198120 2238.665882,5324.517749 2236.685236,5322.818149 2234.477885,5321.737627 2231.815820,5320.562973 2228.924715,5320.207211 2223.890290,5321.236386 2220.552807,5323.684287 2217.205725,5326.953646 2213.068046,5332.145563 2208.814954,5338.546283 2204.442827,5347.188274 2200.705641,5355.671154 2197.993188,5364.587896 2196.668734,5371.022845 2195.883373,5376.109615"/>
    <poly id="145427087" type="building.yes" color="255,230,230" fill="1" layer="-1.00" shape="1744.347276,4821.751617 1866.285781,4756.445242 1837.630621,4703.120733 1713.429334,4769.866799 1727.778914,4796.845462 1729.928146,4795.682495 1738.347385,4810.679555 1744.347276,4821.751617"/>
    <poly id="145427087#1" type="tourism.hotel" color="207,245,201" fill="1" layer="-2.00" shape="1744.347276,4821.751617 1866.285781,4756.445242 1837.630621,4703.120733 1713.429334,4769.866799 1727.778914,4796.845462 1729.928146,4795.682495 1738.347385,4810.679555 1744.347276,4821.751617"/>
    <poly id="156958129" type="building.yes" color="255,230,230" fill="1" layer="-1.00" shape="2354.949412,4930.037282 2350.049429,4920.998185 2359.291993,4916.021525 2364.200539,4925.049626 2354.949412,4930.037282"/>
    <poly id="156958129#1" type="shop.electronics" color="237,199,255" fill="1" layer="-1.00" shape="2354.949412,4930.037282 2350.049429,4920.998185 2359.291993,4916.021525 2364.200539,4925.049626 2354.949412,4930.037282"/>
    <poly id="157328309" type="building.office" color="255,230,230" fill="1" layer="-1.00" shape="1711.117424,5075.662621 1712.588294,5078.388661 1718.991882,5090.298072 1712.460043,5093.786001 1706.072942,5081.910094 1695.005459,5087.810046 1705.953742,5108.154444 1706.276070,5108.746609 1707.201497,5110.467108 1708.936640,5113.695820 1739.922524,5097.147154 1725.925314,5071.138428 1725.279737,5071.486199 1723.866919,5068.849648 1722.932571,5069.349495 1719.195183,5071.348882 1711.117424,5075.662621"/>
    <poly id="159839144" type="building.commercial" color="255,230,230" fill="1" layer="-1.00" shape="1999.347873,4861.012969 1996.050039,4854.979305 1992.416495,4848.053549 1986.293393,4837.446134 1985.731152,4837.883671 1955.370933,4854.205489 1952.342752,4856.179718 1962.041403,4873.623350 1968.430586,4870.089562 1971.828814,4876.202099 1992.516921,4864.785831 1999.347873,4861.012969"/>
    <poly id="164073289" type="building.commercial" color="255,230,230" fill="1" layer="-1.00" shape="1568.632180,4911.649219 1544.199763,4866.035401 1585.369510,4844.152965 1590.513306,4853.360891 1591.100337,4854.422415 1577.069549,4861.786973 1594.106895,4893.592721 1595.939819,4897.133400 1568.632180,4911.649219"/>
    <poly id="167923911" type="building.yes" color="255,230,230" fill="1" layer="-1.00" shape="1544.638056,5428.769176 1551.831296,5424.989017 1555.608463,5429.729082 1558.731565,5432.640792 1562.045876,5435.077324 1561.098388,5470.915521 1549.191177,5477.227821 1481.968945,5512.897169 1469.692272,5489.917564 1433.952169,5423.034328 1421.228956,5399.228077 1496.238445,5358.841143 1538.549885,5336.527651 1551.212830,5329.846618 1553.225082,5333.200633 1546.154117,5338.802980 1548.878718,5341.143847 1546.766091,5344.261284 1543.241403,5349.771535 1541.082864,5354.664801 1538.862104,5360.556550 1537.587946,5365.615505 1536.451730,5371.153456 1535.730755,5378.006289 1535.676764,5383.390256 1535.955342,5389.211068 1537.147801,5395.564284 1538.373487,5400.507899 1531.783773,5404.650341 1538.499943,5417.262669 1544.638056,5428.769176"/>
    <poly id="22726524" type="natural.water" color="181,209,209" fill="1" layer="-4.00" shape="2289.132811,5127.664921 2289.652072,5135.231648 2289.419387,5142.856194 2286.619114,5153.492732 2287.264328,5169.054575 2288.763276,5173.690657 2290.678769,5178.076260 2298.544847,5186.828056 2302.636677,5193.503987 2305.041023,5199.394121 2304.987257,5203.989838 2302.817785,5207.606005 2301.331693,5211.252373 2298.188774,5213.658108 2295.897127,5214.008777 2293.864523,5213.141226 2291.884895,5214.239400 2291.951115,5216.516142 2293.369418,5217.942723 2295.957238,5220.415497 2303.840532,5229.855844 2305.499683,5235.226556 2305.945688,5240.394335 2305.287092,5249.068616 2304.154570,5254.240133 2302.064059,5257.601872 2289.296016,5263.092469 2285.474813,5270.808268 2284.721715,5278.182477 2285.421447,5286.195408 2285.858112,5300.100575 2285.024122,5303.565835 2283.159171,5304.243465 2280.523596,5303.690831 2277.577171,5301.569139 2276.278598,5299.289086 2274.305225,5298.411130 2272.313935,5299.065080 2271.492284,5300.754120 2268.413816,5304.148724 2263.048662,5305.307233 2258.609555,5305.954767 2256.632288,5305.409839 2255.676366,5302.700807 2256.680683,5295.496066 2257.406872,5287.533119 2277.108774,5257.176733 2277.890178,5254.599040 2277.930426,5251.157803 2276.900231,5247.581921 2274.349032,5245.586980 2272.368247,5246.785065 2270.823874,5248.920847 2268.726094,5247.852699 2265.280002,5246.591149 2263.236501,5246.656070 2262.166841,5247.898120 2259.452823,5248.998816 2257.619801,5249.110610 2255.286746,5249.394194 2253.251812,5248.726468 2251.587318,5246.697493 2251.157777,5243.728161 2249.736608,5241.102509 2245.457548,5238.887535 2240.941401,5238.901350 2238.306165,5234.707187 2238.097733,5230.152815 2242.013231,5169.602344 2242.540480,5160.604559 2242.067940,5156.258043 2240.466640,5151.709593 2236.780782,5147.847321 2231.364599,5146.140871 2202.463461,5149.622282 2196.093203,5151.546257 2187.500676,5157.274559 2177.035331,5167.965915 2170.768649,5174.032270 2164.902500,5176.883649 2157.966641,5177.368855 2151.769055,5176.075224 2145.295829,5169.471491 2140.690921,5167.685763 2137.298582,5169.045038 2135.407933,5171.199008 2133.982042,5181.263226 2128.902118,5213.655866 2129.122459,5219.365008 2130.451818,5225.520088 2132.096647,5229.236351 2134.721531,5232.153591 2137.991175,5232.624759 2141.492859,5233.465012 2143.692110,5236.688149 2144.036778,5239.700891 2143.598216,5242.560158 2141.518938,5245.688923 2134.732789,5249.262331 2129.571976,5249.546244 2125.447366,5245.667801 2122.672056,5239.728989 2120.898617,5227.506883 2119.213831,5214.197790 2121.023027,5199.497294 2121.300864,5186.544182 2122.056413,5179.669592 2121.924321,5172.185117 2120.785030,5165.654781 2120.756079,5160.181022 2126.074594,5154.347805 2130.862074,5149.896177 2134.571681,5144.499375 2136.433746,5141.179332 2137.971415,5136.001421 2141.291410,5132.887142 2153.628957,5125.959067 2169.639657,5119.651235 2179.123319,5120.017369 2184.081512,5118.298928 2190.936322,5111.750954 2215.557352,5112.649281 2221.905210,5113.367402 2226.905631,5113.092779 2232.527093,5110.238588 2235.830632,5104.925906 2245.529333,5084.011570 2249.150252,5080.434560 2252.617828,5077.699531 2257.463879,5076.190771 2261.568896,5075.972314 2265.196335,5076.891811 2267.198472,5079.646384 2267.193178,5088.039645 2268.102914,5094.700549 2269.927286,5098.219101 2274.205124,5100.545095 2278.860036,5102.387002 2283.358097,5109.700501 2289.132811,5127.664921"/>
    <poly id="255352373" type="amenity.parking" color="184,184,179" fill="1" layer="-1.00" shape="1768.082970,4830.631763 1782.459614,4857.433221 1769.361071,4864.464089 1755.517608,4871.675059 1741.223496,4845.030045 1768.082970,4830.631763"/>
    <poly id="259752482" type="building.commercial" color="255,230,230" fill="1" layer="-1.00" shape="1580.403014,4811.654587 1567.802834,4818.669384 1552.701047,4826.665497 1535.325944,4835.612280 1532.016872,4827.602504 1527.051347,4815.387980 1523.701470,4807.255610 1531.933259,4802.776916 1538.802619,4799.314942 1532.786223,4787.454605 1531.283909,4784.517298 1530.557365,4783.109993 1540.577456,4778.019211 1542.806310,4782.363827 1548.665159,4793.978096 1558.550845,4788.830269 1566.128127,4784.743702 1570.290697,4792.674575 1576.619712,4804.505264 1580.403014,4811.654587"/>
    <poly id="259882502" type="building.commercial" color="255,230,230" fill="1" layer="-1.00" shape="1719.195183,5071.348882 1722.932571,5069.349495 1711.959468,5048.960376 1658.175786,5077.678936 1659.621742,5080.371369 1668.991980,5097.777493 1673.111595,5095.571577 1686.018187,5119.558023 1706.276070,5108.746609 1705.953742,5108.154444 1695.005459,5087.810046 1691.948255,5082.123485 1696.874725,5079.493966 1698.453000,5082.421092 1711.117424,5075.662621 1719.195183,5071.348882"/>
    <poly id="259888102" type="building.yes" color="255,230,230" fill="1" layer="-1.00" shape="1527.385342,4994.826351 1524.840454,4990.078392 1522.006460,4984.783072 1518.552699,4978.337038 1518.246587,4977.800582 1515.512837,4972.595245 1513.695104,4969.199091 1542.145514,4953.652717 1548.109334,4978.768543 1550.774441,4978.244336 1551.646336,4981.673940 1546.889819,4984.205605 1545.394171,4985.065339 1534.104404,4991.207203 1532.464761,4992.109679 1527.385342,4994.826351"/>
    <poly id="259888103" type="building.yes" color="255,230,230" fill="1" layer="-1.00" shape="1514.987102,5036.882264 1514.446780,5035.432709 1500.606507,5008.915552 1489.455588,5014.737126 1480.155558,4997.054504 1476.323036,4989.782535 1475.883165,4989.133508 1421.750374,5018.160587 1449.954625,5071.200687 1514.987102,5036.882264"/>
    <poly id="259919480" type="building.commercial" color="255,230,230" fill="1" layer="-1.00" shape="1585.267579,5162.175735 1587.465488,5178.632570 1579.100192,5183.009726 1568.356773,5188.647167 1541.315744,5202.833088 1530.563943,5208.470484 1522.308950,5212.804573 1507.496122,5185.021556 1514.476001,5181.460929 1518.246136,5179.539537 1518.942334,5179.192336 1519.553746,5178.877459 1521.405247,5177.899721 1522.798158,5177.160917 1526.170073,5175.368139 1532.845103,5187.180611 1545.679410,5180.301710 1539.776240,5168.897857 1559.708596,5157.738106 1567.166276,5171.935570 1571.591848,5169.544410 1572.076019,5169.283572 1572.730020,5168.935887 1577.384892,5166.425266 1585.267579,5162.175735"/>
    <poly id="259919482" type="building.apartments" color="255,230,230" fill="1" layer="-1.00" shape="1519.553746,5178.877459 1508.680901,5158.545322 1505.700835,5152.748711 1574.769916,5115.335673 1580.754598,5119.712774 1585.267579,5162.175735 1577.384892,5166.425266 1572.730020,5168.935887 1572.076019,5169.283572 1571.591848,5169.544410 1567.166276,5171.935570 1559.708596,5157.738106 1558.415900,5155.658094 1555.143560,5149.591618 1549.461520,5152.601045 1530.020029,5162.922744 1534.349278,5171.022073 1526.170073,5175.368139 1522.798158,5177.160917 1521.405247,5177.899721 1519.553746,5178.877459"/>
    <poly id="260257168" type="building.commercial" color="255,230,230" fill="1" layer="-1.00" shape="1937.596930,4803.871719 1989.031327,4776.360087 1986.717678,4772.069853 1979.661134,4758.975763 1976.434932,4753.309320 1961.789759,4761.187810 1952.576490,4744.094010 1949.544004,4738.463143 1936.359132,4745.625946 1939.492393,4751.302391 1950.986205,4771.908851 1945.225291,4775.128008 1943.587959,4772.200143 1920.446167,4784.809224 1927.417090,4798.013281 1932.803754,4795.034001 1937.596930,4803.871719"/>
    <poly id="260283692" type="building.yes" color="255,230,230" fill="1" layer="-1.00" shape="1875.241351,5091.571287 1860.820869,5064.980050 1859.717838,5065.466814 1825.825136,5083.690918 1814.638103,5089.700325 1810.308213,5091.837104 1824.865970,5118.973848 1839.413110,5146.288138 1861.910400,5133.826761 1863.020181,5133.484406 1857.513015,5122.906465 1848.588505,5105.682913 1875.241351,5091.571287"/>
    <poly id="261504064" type="building.construction" color="255,230,230" fill="1" layer="-1.00" shape="1955.488438,5013.657572 1967.347396,5007.234316 1978.247146,5027.345417 1982.197324,5034.619031 1982.668322,5035.490498 1970.800825,5041.924732 1963.033291,5027.567804 1955.488438,5013.657572"/>
    <poly id="261509934" type="landuse.construction" color="194,194,130" fill="1" layer="-3.00" shape="1662.190541,5241.517137 1714.668290,5213.216444 1685.796830,5159.690110 1645.669571,5181.328711 1652.676785,5194.321993 1640.368511,5200.962568 1647.787788,5214.815504 1662.190541,5241.517137"/>
    <poly id="262671906" type="landuse.basin" color="194,194,130" fill="1" layer="-3.00" shape="2298.960915,4961.478834 2288.511332,4941.916519 2307.733496,4931.727431 2318.001385,4950.943478 2315.986885,4952.130056 2313.984066,4955.925808 2309.957406,4958.820803 2305.597166,4960.646079 2301.118375,4960.338333 2298.960915,4961.478834"/>
    <poly id="265147542" type="building.apartments" color="255,230,230" fill="1" layer="-1.00" shape="1727.842778,5285.301082 1725.269112,5286.681159 1721.666855,5279.966838 1724.240523,5278.586760 1723.728086,5277.648215 1719.836618,5270.397626 1706.229106,5277.711333 1710.624581,5285.900361 1712.875595,5284.683063 1716.477857,5291.397379 1714.226974,5292.603575 1718.886830,5301.284180 1732.502753,5293.970594 1730.105893,5289.579549 1727.842778,5285.301082"/>
    <poly id="265147543" type="building.yes" color="255,230,230" fill="1" layer="-1.00" shape="1640.368511,5200.962568 1623.023149,5210.320259 1624.853271,5227.183623 1647.787788,5214.815504 1640.368511,5200.962568"/>
    <poly id="265147544" type="building.yes" color="255,230,230" fill="1" layer="-1.00" shape="1734.935825,5202.283099 1754.693795,5191.621441 1751.107620,5184.973908 1749.554193,5182.091467 1748.769039,5180.650149 1745.472189,5174.527788 1744.059270,5171.902334 1742.778552,5169.522667 1740.349056,5165.031320 1720.591038,5175.693017 1723.045217,5180.240155 1724.325940,5182.619819 1725.648087,5185.066578 1728.565094,5190.462868 1731.358078,5195.635673 1734.935825,5202.283099"/>
    <poly id="265147545" type="building.residential" color="255,230,230" fill="1" layer="-1.00" shape="1750.183311,5279.010415 1776.922588,5264.655209 1769.106360,5250.120281 1759.372267,5255.336194 1752.084366,5259.248284 1742.375488,5264.475614 1750.183311,5279.010415"/>
    <poly id="265147546" type="building.yes" color="255,230,230" fill="1" layer="-1.00" shape="1743.803402,5218.606568 1736.896820,5222.389878 1750.273467,5247.292302 1751.182244,5248.990410 1758.121923,5245.263009 1748.678196,5227.678267 1743.803402,5218.606568"/>
    <poly id="265147547" type="building.yes" color="255,230,230" fill="1" layer="-1.00" shape="1736.896820,5222.389878 1730.339380,5225.910799 1743.716041,5250.813210 1750.273467,5247.292302 1736.896820,5222.389878"/>
    <poly id="265147548" type="amenity.fire_station" color="237,199,199" fill="1" layer="-1.00" shape="1730.339380,5225.910799 1723.603546,5229.529572 1737.847834,5256.040781 1744.575212,5252.421923 1743.716041,5250.813210 1730.339380,5225.910799"/>
    <poly id="265147548#1" type="building.fire_station" color="255,230,230" fill="1" layer="-1.00" shape="1730.339380,5225.910799 1723.603546,5229.529572 1737.847834,5256.040781 1744.575212,5252.421923 1743.716041,5250.813210 1730.339380,5225.910799"/>
    <poly id="265147554" type="building.apartments" color="255,230,230" fill="1" layer="-1.00" shape="1712.243970,5288.916787 1707.844127,5291.274855 1706.844442,5289.409162 1708.432759,5288.561640 1704.549465,5281.333359 1690.169059,5289.060001 1695.043739,5298.142767 1692.113288,5299.718551 1698.764481,5312.097124 1718.886830,5301.284180 1714.226974,5292.603575 1712.243970,5288.916787"/>
    <poly id="265147557" type="building.yes" color="255,230,230" fill="1" layer="-1.00" shape="1767.213458,5150.111310 1757.614794,5155.284393 1759.060827,5157.965746 1747.058170,5164.443167 1751.718462,5173.090488 1760.238377,5168.493276 1760.734067,5169.420527 1759.986571,5169.822620 1762.382809,5174.269178 1752.121601,5179.800939 1757.641311,5190.034776 1781.739940,5177.036665 1781.574626,5176.734981 1767.213458,5150.111310"/>
    <poly id="265147559" type="building.yes" color="255,230,230" fill="1" layer="-1.00" shape="1720.977598,5155.502501 1727.703810,5167.970785 1743.664782,5159.363298 1738.508520,5149.810936 1738.589330,5148.668342 1737.498468,5146.657257 1736.351989,5145.800161 1735.880841,5144.939811 1740.077056,5142.679312 1740.548204,5143.539662 1740.734895,5144.907409 1741.825626,5146.929596 1742.754471,5147.628732 1748.232793,5157.795465 1766.215445,5148.101300 1768.517408,5146.862406 1754.693252,5121.233108 1751.705598,5121.187276 1704.824897,5146.466321 1706.064463,5148.756685 1717.484155,5169.928150 1720.601633,5168.243525 1717.552408,5162.601452 1718.435845,5162.123218 1716.237752,5158.056455 1720.977598,5155.502501"/>
    <poly id="265147562" type="building.residential" color="255,230,230" fill="1" layer="-1.00" shape="1758.121923,5245.263009 1784.853025,5230.896631 1786.821728,5236.537270 1780.051439,5241.665500 1782.678924,5246.547743 1776.537749,5249.840316 1779.247696,5254.890050 1776.724906,5256.248497 1782.549697,5267.096528 1788.589067,5263.847186 1804.875170,5251.224595 1805.557207,5250.644108 1806.804543,5249.359653 1807.859698,5247.906428 1808.696836,5246.328542 1809.315699,5244.648197 1809.536898,5243.773691 1809.785308,5242.011321 1809.789347,5240.212801 1809.698398,5239.323562 1809.330435,5237.576227 1809.061860,5236.718228 1806.210795,5227.836560 1800.646244,5213.483223 1790.443991,5193.624744 1776.148241,5201.307800 1762.668048,5208.545172 1743.803402,5218.606568 1748.678196,5227.678267 1758.121923,5245.263009"/>
    <poly id="265147563" type="building.yes" color="255,230,230" fill="1" layer="-1.00" shape="1645.669571,5181.328711 1623.032160,5193.544856 1621.307892,5194.468534 1623.023149,5210.320259 1640.368511,5200.962568 1652.676785,5194.321993 1645.669571,5181.328711"/>
    <poly id="265147564" type="building.apartments" color="255,230,230" fill="1" layer="-1.00" shape="1675.836463,5309.388289 1681.058141,5319.119007 1682.099383,5321.040691 1687.790308,5317.987061 1688.724622,5317.487211 1694.415553,5314.433586 1693.374314,5312.511901 1688.772612,5303.909705 1687.303104,5304.703099 1684.312219,5299.128330 1680.023993,5291.151506 1677.059525,5292.749106 1676.320615,5293.140205 1675.496791,5293.574727 1674.468862,5294.140106 1667.172606,5298.052180 1663.826029,5299.845188 1660.925515,5294.482421 1659.207277,5291.253915 1658.205443,5291.752985 1657.470020,5290.389970 1657.452245,5289.013084 1657.350519,5288.323562 1656.935425,5286.997574 1656.638808,5286.372403 1656.282725,5285.779848 1655.408783,5284.714986 1654.899236,5284.253876 1653.751995,5283.463397 1663.078411,5278.453557 1661.888591,5276.241492 1665.473171,5274.306918 1661.771637,5267.413839 1659.835095,5268.446065 1657.885044,5264.826289 1631.052527,5279.236348 1633.093363,5283.034807 1631.275632,5284.012908 1632.506756,5286.303163 1631.937676,5286.607420 1634.862503,5292.059275 1636.756579,5291.048754 1637.400970,5292.255279 1634.479227,5293.808982 1633.932375,5294.379951 1633.890625,5295.067807 1634.192720,5295.948392 1636.060050,5299.422872 1634.751935,5300.129333 1634.178732,5300.788814 1634.288513,5301.511735 1636.337524,5305.332494 1635.233384,5305.919198 1634.661986,5306.423268 1634.726990,5307.367715 1636.800931,5311.222071 1635.654206,5311.841587 1635.125523,5312.301744 1635.046406,5313.300029 1637.103852,5317.120886 1635.226663,5318.131603 1636.986975,5321.371694 1638.539769,5324.309615 1637.631423,5324.754262 1642.720808,5334.250269 1643.604478,5333.749825 1645.099993,5336.531651 1647.732820,5339.504319 1652.098726,5337.156925 1653.033035,5336.657070 1658.791971,5333.559800 1665.128429,5330.158378 1659.740391,5320.214796 1662.968413,5318.453716 1669.610525,5314.900416 1672.846476,5313.183841 1671.929250,5311.485645 1673.874352,5310.442419 1675.836463,5309.388289"/>
    <poly id="265147565" type="building.yes" color="255,230,230" fill="1" layer="-1.00" shape="1647.787788,5214.815504 1624.853271,5227.183623 1628.216029,5258.175747 1628.679128,5259.002690 1629.433436,5259.466638 1630.879881,5259.205873 1662.520919,5242.142700 1662.190541,5241.517137 1647.787788,5214.815504"/>
    <poly id="265147566" type="building.yes" color="255,230,230" fill="1" layer="-1.00" shape="1706.064463,5148.756685 1685.796830,5159.690110 1714.668290,5213.216444 1734.935825,5202.283099 1731.358078,5195.635673 1728.565094,5190.462868 1725.648087,5185.066578 1724.325940,5182.619819 1723.045217,5180.240155 1720.591038,5175.693017 1717.484155,5169.928150 1706.064463,5148.756685"/>
    <poly id="265147715" type="building.yes" color="255,230,230" fill="1" layer="-1.00" shape="2019.063220,5119.814622 2016.056020,5121.444898 2011.346133,5112.730212 1997.652599,5120.131213 2002.403791,5128.924087 1999.243641,5130.641405 2007.266937,5145.489859 2027.136223,5134.741393 2026.506559,5133.723744 2025.108798,5131.253843 2021.146108,5123.613681 2019.063220,5119.814622"/>
    <poly id="265147716" type="building.yes" color="255,230,230" fill="1" layer="-1.00" shape="2005.190485,5083.215227 1985.321097,5093.963752 1995.947575,5113.605407 2015.816798,5102.868012 2009.619389,5091.415928 2005.190485,5083.215227"/>
    <poly id="265147717" type="building.yes" color="255,230,230" fill="1" layer="-1.00" shape="1994.616031,5137.315434 1991.252161,5139.130301 1985.013582,5127.588939 1970.971861,5135.174668 1976.284836,5145.017685 1973.116259,5146.734915 1975.413299,5150.991650 1980.313181,5160.063800 2000.895881,5148.935002 1994.616031,5137.315434"/>
    <poly id="265147718" type="building.yes" color="255,230,230" fill="1" layer="-1.00" shape="1975.413299,5150.991650 1972.253165,5152.708979 1965.700574,5140.586657 1950.044814,5149.052899 1956.655338,5161.275803 1955.296139,5162.014920 1960.129941,5170.964162 1980.313181,5160.063800 1975.413299,5150.991650"/>
    <poly id="265147719" type="building.yes" color="255,230,230" fill="1" layer="-1.00" shape="1947.125563,5109.084033 1933.542457,5116.430926 1942.871494,5133.692606 1945.730580,5138.977287 1959.313528,5131.641518 1947.125563,5109.084033"/>