<?xml version="1.0" encoding="UTF-8"?>
<!-- generated on 2019-02-22 14:27:14.840455 by $Id$ via randomTrips.py
  options: 
-->
<routes xmlns:xsi="http://www.w3.org/2001/XMLSchema-instance" xsi:noNamespaceSchemaLocation="http://sumo.dlr.de/xsd/routes_file.xsd">
    <vType id="truck_truck" vClass="truck">
    </vType>
    <trip id="truck0" depart="0.00" departLane="best" from="569345537#4" to="125480074" type="truck_truck"/>
    <trip id="truck1" depart="8.34" departLane="best" from="196116975#0" to="496986970#0" type="truck_truck"/>
    <trip id="truck2" depart="16.67" departLane="best" from="-496986969#0" to="196116976#6" type="truck_truck"/>
    <trip id="truck3" depart="25.01" departLane="best" from="196116975#0" to="499172074#11" type="truck_truck"/>
    <trip id="truck4" depart="33.34" departLane="best" from="-5670139" to="186202420#0" type="truck_truck"/>
    <trip id="truck5" depart="41.68" departLane="best" from="5672290" to="5670348#0" type="truck_truck"/>
    <trip id="truck6" depart="50.02" departLane="best" from="308322447#1" to="497258109" type="truck_truck"/>
    <trip id="truck7" depart="58.35" departLane="best" from="569345537#0" to="499172074#11" type="truck_truck"/>
    <trip id="truck8" depart="66.69" departLane="best" from="-5670139" to="226041032#0" type="truck_truck"/>
    <trip id="truck9" depart="75.02" departLane="best" from="-5670139" to="308322446" type="truck_truck"/>
    <trip id="truck10" depart="83.36" departLane="best" from="308322446" to="196116976#6" type="truck_truck"/>
    <trip id="truck11" depart="91.69" departLane="best" from="46525065#0" to="5670139" type="truck_truck"/>
    <trip id="truck12" depart="100.03" departLane="best" from="198924778#1" to="22898530#3" type="truck_truck"/>
    <trip id="truck13" depart="108.37" departLane="best" from="196116975#0" to="618990022#7" type="truck_truck"/>
    <trip id="truck14" depart="116.70" departLane="best" from="569345537#0" to="308322448#1" type="truck_truck"/>
    <trip id="truck15" depart="125.04" departLane="best" from="46525065#0" to="22898530#2" type="truck_truck"/>
    <trip id="truck16" depart="133.37" departLane="best" from="308322447#4" to="196117083" type="truck_truck"/>
    <trip id="truck17" depart="141.71" departLane="best" from="-5670139" to="505582406" type="truck_truck"/>
    <trip id="truck19" depart="158.38" departLane="best" from="618990022#6" to="5672951#1" type="truck_truck"/>
    <trip id="truck20" depart="166.72" departLane="best" from="-5670253#0" to="460065822#0" type="truck_truck"/>
    <trip id="truck21" depart="175.05" departLane="best" from="569345537#0" to="22898530#2" type="truck_truck"/>
    <trip id="truck22" depart="183.39" departLane="best" from="422298615#4" to="196116976#5" type="truck_truck"/>
    <trip id="truck23" depart="191.72" departLane="best" from="618990022#0" to="5672951#1" type="truck_truck"/>
    <trip id="truck24" depart="200.06" departLane="best" from="198924778#0" to="505582406" type="truck_truck"/>
    <trip id="truck25" depart="208.40" departLane="best" from="5670874#1" to="496989355#3" type="truck_truck"/>
    <trip id="truck26" depart="216.73" departLane="best" from="569345537#0" to="5671574#1" type="truck_truck"/>
    <trip id="truck27" depart="225.07" departLane="best" from="196117083" to="5672951#1" type="truck_truck"/>
    <trip id="truck28" depart="233.40" departLane="best" from="46525065#0" to="5670348#0" type="truck_truck"/>
    <trip id="truck29" depart="241.74" departLane="best" from="-5670253#1" to="196117092" type="truck_truck"/>
    <trip id="truck30" depart="250.08" departLane="best" from="22898530#0" to="499172074#11" type="truck_truck"/>
    <trip id="truck31" depart="258.41" departLane="best" from="569345537#0" to="-5670874#2" type="truck_truck"/>
    <trip id="truck32" depart="266.75" departLane="best" from="196116975#0" to="195743336#2" type="truck_truck"/>
    <trip id="truck33" depart="275.08" departLane="best" from="618990022#10" to="499172074#11" type="truck_truck"/>
    <trip id="truck34" depart="283.42" departLane="best" from="5672290" to="196116976#6" type="truck_truck"/>
    <trip id="truck35" depart="291.75" departLane="best" from="-5670139" to="460065821#1" type="truck_truck"/>
    <trip id="truck36" depart="300.09" departLane="best" from="324118558" to="46538371#3" type="truck_truck"/>
    <trip id="truck37" depart="308.43" departLane="best" from="308322448#1" to="382740985#3" type="truck_truck"/>
    <trip id="truck38" depart="316.76" departLane="best" from="195743336#1" to="46538371#3" type="truck_truck"/>
    <trip id="truck39" depart="325.10" departLane="best" from="324118558" to="5672951#1" type="truck_truck"/>
    <trip id="truck40" depart="333.43" departLane="best" from="46525065#0" to="-5670253#1" type="truck_truck"/>
    <trip id="truck41" depart="341.77" departLane="best" from="663543997" to="5671574#1" type="truck_truck"/>
    <trip id="truck43" depart="358.44" departLane="best" from="308322448#1" to="-5670874#1" type="truck_truck"/>
    <trip id="truck44" depart="366.78" departLane="best" from="196117083" to="5670874#0" type="truck_truck"/>
    <trip id="truck45" depart="375.11" departLane="best" from="46525065#0" to="5670253#0" type="truck_truck"/>
    <trip id="truck46" depart="383.45" departLane="best" from="618990022#6" to="499172074#11" type="truck_truck"/>
    <trip id="truck47" depart="391.78" departLane="best" from="46525065#0" to="5670348#1" type="truck_truck"/>
    <trip id="truck48" depart="400.12" departLane="best" from="-505582406" to="499172074#11" type="truck_truck"/>
    <trip id="truck49" depart="408.46" departLane="best" from="-5670139" to="196116976#6" type="truck_truck"/>
    <trip id="truck50" depart="416.79" departLane="best" from="196116976#0" to="195743336#2" type="truck_truck"/>
    <trip id="truck51" depart="425.13" departLane="best" from="324118554#1" to="499172074#11" type="truck_truck"/>
    <trip id="truck52" depart="433.46" departLane="best" from="196116975#0" to="5670253#0" type="truck_truck"/>
    <trip id="truck53" depart="441.80" departLane="best" from="196116976#0" to="422298615#1" type="truck_truck"/>
    <trip id="truck54" depart="450.14" departLane="best" from="198924778#1" to="5670348#1" type="truck_truck"/>
    <trip id="truck55" depart="458.47" departLane="best" from="-505582406" to="46538371#3" type="truck_truck"/>
    <trip id="truck56" depart="466.81" departLane="best" from="569345537#0" to="5672951#1" type="truck_truck"/>
    <trip id="truck57" depart="475.14" departLane="best" from="5672752#0" to="5670139" type="truck_truck"/>
    <trip id="truck58" depart="483.48" departLane="best" from="5669664#0" to="196116976#6" type="truck_truck"/>
    <trip id="truck60" depart="500.15" departLane="best" from="324118558" to="-196116988#0" type="truck_truck"/>
    <trip id="truck61" depart="508.49" departLane="best" from="-505582406" to="5672951#1" type="truck_truck"/>
    <trip id="truck62" depart="516.82" departLane="best" from="618990022#0" to="497258108#1" type="truck_truck"/>
    <trip id="truck63" depart="525.16" departLane="best" from="5672752#1" to="499172074#11" type="truck_truck"/>
    <trip id="truck64" depart="533.49" departLane="best" from="-5672752#0" to="195743336#2" type="truck_truck"/>
    <trip id="truck65" depart="541.83" departLane="best" from="618990022#0" to="196116976#6" type="truck_truck"/>
    <trip id="truck66" depart="550.17" departLane="best" from="569345537#0" to="91383966#1" type="truck_truck"/>
    <trip id="truck67" depart="558.50" departLane="best" from="5672290" to="22898530#3" type="truck_truck"/>
    <trip id="truck68" depart="566.84" departLane="best" from="569345537#0" to="5672951#1" type="truck_truck"/>
    <trip id="truck69" depart="575.17" departLane="best" from="196116975#0" to="5671574#1" type="truck_truck"/>
    <trip id="truck71" depart="591.84" departLane="best" from="-496986969#0" to="196116976#6" type="truck_truck"/>
    <trip id="truck72" depart="600.18" departLane="best" from="226041032#3" to="5672951#1" type="truck_truck"/>
    <trip id="truck73" depart="608.52" departLane="best" from="-5670139" to="460065822#0" type="truck_truck"/>
    <trip id="truck74" depart="616.85" departLane="best" from="5669664#1" to="308322448#1" type="truck_truck"/>
    <trip id="truck75" depart="625.19" departLane="best" from="308322447#2" to="499172074#11" type="truck_truck"/>
    <trip id="truck76" depart="633.52" departLane="best" from="196116976#3" to="5670139" type="truck_truck"/>
    <trip id="truck77" depart="641.86" departLane="best" from="46525065#0" to="5670253#0" type="truck_truck"/>
    <trip id="truck78" depart="650.20" departLane="best" from="22898530#4" to="-5670874#2" type="truck_truck"/>
    <trip id="truck79" depart="658.53" departLane="best" from="499172074#0" to="382740985#0" type="truck_truck"/>
    <trip id="truck80" depart="666.87" departLane="best" from="198924778#1" to="5672752#1" type="truck_truck"/>
    <trip id="truck81" depart="675.20" departLane="best" from="198924778#0" to="439801903" type="truck_truck"/>
    <trip id="truck82" depart="683.54" departLane="best" from="-5670874#0" to="460065820" type="truck_truck"/>
    <trip id="truck83" depart="691.87" departLane="best" from="618990022#0" to="499172074#5" type="truck_truck"/>
    <trip id="truck84" depart="700.21" departLane="best" from="324118558" to="499172074#11" type="truck_truck"/>
    <trip id="truck85" depart="708.55" departLane="best" from="497258108#1" to="46538371#3" type="truck_truck"/>
    <trip id="truck86" depart="716.88" departLane="best" from="5672290" to="196116976#3" type="truck_truck"/>
    <trip id="truck87" depart="725.22" departLane="best" from="-5670139" to="496986970#1" type="truck_truck"/>
    <trip id="truck88" depart="733.55" departLane="best" from="5672290" to="5670348#1" type="truck_truck"/>
    <trip id="truck89" depart="741.89" departLane="best" from="499172074#1" to="196117092" type="truck_truck"/>
    <trip id="truck90" depart="750.23" departLane="best" from="196116975#0" to="-496986969#0" type="truck_truck"/>
    <trip id="truck91" depart="758.56" departLane="best" from="196116976#1" to="46538371#3" type="truck_truck"/>
    <trip id="truck92" depart="766.90" departLane="best" from="196116975#0" to="5670139" type="truck_truck"/>
    <trip id="truck94" depart="783.57" departLane="best" from="-5670139" to="460065820" type="truck_truck"/>
    <trip id="truck95" depart="791.90" departLane="best" from="460065820" to="-5670253#1" type="truck_truck"/>
    <trip id="truck97" depart="808.58" departLane="best" from="499172074#0" to="91383966#1" type="truck_truck"/>
    <trip id="truck98" depart="816.91" departLane="best" from="618990022#0" to="5670348#1" type="truck_truck"/>
    <trip id="truck99" depart="825.25" departLane="best" from="-5670139" to="308322447#1" type="truck_truck"/>
    <trip id="truck100" depart="833.58" departLane="best" from="46525065#0" to="195743336#2" type="truck_truck"/>
    <trip id="truck101" depart="841.92" departLane="best" from="196116975#4" to="5670139" type="truck_truck"/>
    <trip id="truck102" depart="850.26" departLane="best" from="569345537#0" to="5670348#1" type="truck_truck"/>
    <trip id="truck103" depart="858.59" departLane="best" from="324118554#1" to="5670348#1" type="truck_truck"/>
    <trip id="truck104" depart="866.93" departLane="best" from="46525065#0" to="499172074#2" type="truck_truck"/>
    <trip id="truck105" depart="875.26" departLane="best" from="420890023" to="195743336#2" type="truck_truck"/>
    <trip id="truck106" depart="883.60" departLane="best" from="-5670874#1" to="46538371#3" type="truck_truck"/>
    <trip id="truck107" depart="891.93" departLane="best" from="196116975#0" to="324118554#1" type="truck_truck"/>
    <trip id="truck108" depart="900.27" departLane="best" from="497258108#1" to="5670348#1" type="truck_truck"/>
    <trip id="truck109" depart="908.61" departLane="best" from="618990022#12" to="196116976#6" type="truck_truck"/>
    <trip id="truck110" depart="916.94" departLane="best" from="46525065#0" to="196117083" type="truck_truck"/>
    <trip id="truck113" depart="941.95" departLane="best" from="618990022#3" to="422298615#1" type="truck_truck"/>
    <trip id="truck114" depart="950.29" departLane="best" from="-5670253#1" to="91383966#1" type="truck_truck"/>
    <trip id="truck115" depart="958.62" departLane="best" from="5670874#2" to="382740985#3" type="truck_truck"/>
    <trip id="truck116" depart="966.96" departLane="best" from="439801903" to="382740985#3" type="truck_truck"/>
    <trip id="truck117" depart="975.29" departLane="best" from="569345537#0" to="5671574#1" type="truck_truck"/>
    <trip id="truck118" depart="983.63" departLane="best" from="-5670139" to="618990022#9" type="truck_truck"/>
    <trip id="truck119" depart="991.96" departLane="best" from="496989355#3" to="5671574#1" type="truck_truck"/>
    <trip id="truck120" depart="1000.30" departLane="best" from="541350711#0" to="460065822#0" type="truck_truck"/>
    <trip id="truck121" depart="1008.64" departLane="best" from="196117092" to="5671574#1" type="truck_truck"/>
    <trip id="truck122" depart="1016.97" departLane="best" from="46525065#0" to="46583189#1" type="truck_truck"/>
    <trip id="truck123" depart="1025.31" departLane="best" from="196117083" to="5672951#0" type="truck_truck"/>
    <trip id="truck124" depart="1033.64" departLane="best" from="196116975#0" to="5670874#2" type="truck_truck"/>
    <trip id="truck125" depart="1041.98" departLane="best" from="22898530#0" to="5672951#1" type="truck_truck"/>
    <trip id="truck127" depart="1058.65" departLane="best" from="-5670139" to="196117092" type="truck_truck"/>
    <trip id="truck128" depart="1066.99" departLane="best" from="46583189#1" to="46538371#3" type="truck_truck"/>
    <trip id="truck130" depart="1083.66" departLane="best" from="196116976#3" to="195743336#2" type="truck_truck"/>
    <trip id="truck131" depart="1091.99" departLane="best" from="195743336#0" to="196117083" type="truck_truck"/>
    <trip id="truck132" depart="1100.33" departLane="best" from="198924778#0" to="186202420#1" type="truck_truck"/>
    <trip id="truck134" depart="1117.00" departLane="best" from="195743336#0" to="-196117083" type="truck_truck"/>
    <trip id="truck136" depart="1133.67" departLane="best" from="569345537#0" to="499172074#11" type="truck_truck"/>
    <trip id="truck137" depart="1142.01" departLane="best" from="420899372" to="46538371#0" type="truck_truck"/>
    <trip id="truck138" depart="1150.35" departLane="best" from="46525065#0" to="308322447#4" type="truck_truck"/>
    <trip id="truck139" depart="1158.68" departLane="best" from="663543997" to="195743336#2" type="truck_truck"/>
    <trip id="truck141" depart="1175.35" departLane="best" from="460065820" to="46538371#3" type="truck_truck"/>
    <trip id="truck142" depart="1183.69" departLane="best" from="324118558" to="5672951#1" type="truck_truck"/>
    <trip id="truck143" depart="1192.02" departLane="best" from="196116975#0" to="196116976#6" type="truck_truck"/>
    <trip id="truck144" depart="1200.36" departLane="best" from="-195743152#0" to="46538371#3" type="truck_truck"/>
    <trip id="truck145" depart="1208.70" departLane="best" from="196116975#4" to="5670139" type="truck_truck"/>
    <trip id="truck148" depart="1233.70" departLane="best" from="324118558" to="497258108#1" type="truck_truck"/>
    <trip id="truck149" depart="1242.04" departLane="best" from="5672290" to="-5672752#0" type="truck_truck"/>
    <trip id="truck150" depart="1250.38" departLane="best" from="186202420#0" to="308322447#4" type="truck_truck"/>
    <trip id="truck152" depart="1267.05" departLane="best" from="499172074#3" to="5670139" type="truck_truck"/>
    <trip id="truck153" depart="1275.38" departLane="best" from="422298615#1" to="-5672752#1" type="truck_truck"/>
    <trip id="truck154" depart="1283.72" departLane="best" from="-497258109" to="460065821#1" type="truck_truck"/>
    <trip id="truck156" depart="1300.39" departLane="best" from="5672752#1" to="499172074#11" type="truck_truck"/>
    <trip id="truck157" depart="1308.73" departLane="best" from="618990022#12" to="91383966#1" type="truck_truck"/>
    <trip id="truck158" depart="1317.06" departLane="best" from="-497258109" to="5670348#1" type="truck_truck"/>
    <trip id="truck159" depart="1325.40" departLane="best" from="420899372" to="505582406" type="truck_truck"/>
    <trip id="truck160" depart="1333.73" departLane="best" from="618990022#0" to="196116976#6" type="truck_truck"/>
    <trip id="truck161" depart="1342.07" departLane="best" from="46583189#1" to="505582406" type="truck_truck"/>
    <trip id="truck162" depart="1350.41" departLane="best" from="422298615#1" to="186202420#0" type="truck_truck"/>
    <trip id="truck163" depart="1358.74" departLane="best" from="226041032#3" to="5670139" type="truck_truck"/>
    <trip id="truck165" depart="1375.41" departLane="best" from="195743336#1" to="382740985#3" type="truck_truck"/>
    <trip id="truck166" depart="1383.75" departLane="best" from="5670873#0" to="499172074#9" type="truck_truck"/>
    <trip id="truck167" depart="1392.08" departLane="best" from="5670873#1" to="196116976#6" type="truck_truck"/>
    <trip id="truck169" depart="1408.76" departLane="best" from="324118558" to="5670139" type="truck_truck"/>
    <trip id="truck170" depart="1417.09" departLane="best" from="-5670253#1" to="91383966#1" type="truck_truck"/>
    <trip id="truck171" depart="1425.43" departLane="best" from="-5672752#1" to="497258109" type="truck_truck"/>
    <trip id="truck172" depart="1433.76" departLane="best" from="46525065#0" to="186202420#0" type="truck_truck"/>
    <trip id="truck173" depart="1442.10" departLane="best" from="196117092" to="5671574#1" type="truck_truck"/>
    <trip id="truck174" depart="1450.44" departLane="best" from="46525065#0" to="420899373" type="truck_truck"/>
    <trip id="truck175" depart="1458.77" departLane="best" from="618990022#0" to="496986970#0" type="truck_truck"/>
    <trip id="truck176" depart="1467.11" departLane="best" from="569345537#0" to="5672951#1" type="truck_truck"/>
    <trip id="truck177" depart="1475.44" departLane="best" from="439801903" to="5671574#1" type="truck_truck"/>
    <trip id="truck178" depart="1483.78" departLane="best" from="46583189#2" to="91383966#1" type="truck_truck"/>
    <trip id="truck180" depart="1500.45" departLane="best" from="46525065#0" to="382740985#3" type="truck_truck"/>
    <trip id="truck181" depart="1508.79" departLane="best" from="46525065#0" to="497258108#1" type="truck_truck"/>
    <trip id="truck182" depart="1517.12" departLane="best" from="46525065#0" to="226041032#0" type="truck_truck"/>
    <trip id="truck183" depart="1525.46" departLane="best" from="460065821#1" to="46538371#3" type="truck_truck"/>
    <trip id="truck184" depart="1533.79" departLane="best" from="5669664#0" to="439801903" type="truck_truck"/>
    <trip id="truck185" depart="1542.13" departLane="best" from="420899372" to="91383966#1" type="truck_truck"/>
    <trip id="truck186" depart="1550.47" departLane="best" from="22898530#0" to="5670139" type="truck_truck"/>
    <trip id="truck187" depart="1558.80" departLane="best" from="569345537#0" to="5672951#1" type="truck_truck"/>
    <trip id="truck188" depart="1567.14" departLane="best" from="5669664#0" to="5670348#1" type="truck_truck"/>
    <trip id="truck189" depart="1575.47" departLane="best" from="618990022#0" to="91383966#1" type="truck_truck"/>
    <trip id="truck190" depart="1583.81" departLane="best" from="-5670139" to="505582406" type="truck_truck"/>
    <trip id="truck191" depart="1592.14" departLane="best" from="-505582406" to="5670874#2" type="truck_truck"/>
    <trip id="truck192" depart="1600.48" departLane="best" from="46525065#0" to="5670874#1" type="truck_truck"/>
    <trip id="truck193" depart="1608.82" departLane="best" from="-5670874#2" to="46538371#3" type="truck_truck"/>
    <trip id="truck194" depart="1617.15" departLane="best" from="618990022#0" to="5669664#1" type="truck_truck"/>
    <trip id="truck195" depart="1625.49" departLane="best" from="22898530#2" to="499172074#11" type="truck_truck"/>
    <trip id="truck196" depart="1633.82" departLane="best" from="499172074#3" to="5670348#1" type="truck_truck"/>
    <trip id="truck197" depart="1642.16" departLane="best" from="496986970#0" to="382740985#3" type="truck_truck"/>
    <trip id="truck198" depart="1650.50" departLane="best" from="324118558" to="499172074#11" type="truck_truck"/>
    <trip id="truck199" depart="1658.83" departLane="best" from="198924778#0" to="5670348#1" type="truck_truck"/>
    <trip id="truck200" depart="1667.17" departLane="best" from="186202420#1" to="195743336#2" type="truck_truck"/>
    <trip id="truck201" depart="1675.50" departLane="best" from="46525065#0" to="91383966#1" type="truck_truck"/>
    <trip id="truck202" depart="1683.84" departLane="best" from="460065821#1" to="618990022#11" type="truck_truck"/>
    <trip id="truck203" depart="1692.17" departLane="best" from="5672290" to="5670348#1" type="truck_truck"/>
    <trip id="truck204" depart="1700.51" departLane="best" from="22898530#0" to="195743336#1" type="truck_truck"/>
    <trip id="truck205" depart="1708.85" departLane="best" from="618990022#5" to="195743336#2" type="truck_truck"/>
    <trip id="truck206" depart="1717.18" departLane="best" from="618990022#6" to="5672951#1" type="truck_truck"/>
    <trip id="truck207" depart="1725.52" departLane="best" from="5669664#1" to="91383966#1" type="truck_truck"/>
    <trip id="truck208" depart="1733.85" departLane="best" from="618990022#6" to="5671574#0" type="truck_truck"/>
    <trip id="truck209" depart="1742.19" departLane="best" from="308322446" to="5670874#1" type="truck_truck"/>
    <trip id="truck210" depart="1750.53" departLane="best" from="324118558" to="5669664#0" type="truck_truck"/>
    <trip id="truck211" depart="1758.86" departLane="best" from="499172074#1" to="499172074#11" type="truck_truck"/>
    <trip id="truck212" depart="1767.20" departLane="best" from="5672290" to="618990022#6" type="truck_truck"/>
    <trip id="truck213" depart="1775.53" departLane="best" from="-5670139" to="226041032#0" type="truck_truck"/>
    <trip id="truck214" depart="1783.87" departLane="best" from="-496986969#0" to="5672951#1" type="truck_truck"/>
    <trip id="truck215" depart="1792.20" departLane="best" from="46525065#0" to="618990022#11" type="truck_truck"/>
    <trip id="truck216" depart="1800.54" departLane="best" from="196116975#0" to="-5670874#1" type="truck_truck"/>
    <trip id="truck217" depart="1808.88" departLane="best" from="198924778#0" to="439801903" type="truck_truck"/>
    <trip id="truck218" depart="1817.21" departLane="best" from="-5670874#1" to="46538371#3" type="truck_truck"/>
    <trip id="truck219" depart="1825.55" departLane="best" from="499172074#1" to="5670348#1" type="truck_truck"/>
    <trip id="truck222" depart="1850.56" departLane="best" from="46525065#0" to="91383966#1" type="truck_truck"/>
    <trip id="truck223" depart="1858.89" departLane="best" from="22898530#4" to="422298615#1" type="truck_truck"/>
    <trip id="truck225" depart="1875.56" departLane="best" from="499172074#0" to="505582406" type="truck_truck"/>
    <trip id="truck226" depart="1883.90" departLane="best" from="-195743152#0" to="5672951#1" type="truck_truck"/>
    <trip id="truck227" depart="1892.23" departLane="best" from="-196117083" to="5670874#1" type="truck_truck"/>
    <trip id="truck228" depart="1900.57" departLane="best" from="186202420#1" to="-5670874#0" type="truck_truck"/>
    <trip id="truck229" depart="1908.91" departLane="best" from="5670253#1" to="496989355#1" type="truck_truck"/>
    <trip id="truck231" depart="1925.58" departLane="best" from="-5670139" to="496986970#0" type="truck_truck"/>
    <trip id="truck232" depart="1933.91" departLane="best" from="460065820" to="46538371#3" type="truck_truck"/>
    <trip id="truck233" depart="1942.25" departLane="best" from="618990022#5" to="-5670874#1" type="truck_truck"/>
    <trip id="truck234" depart="1950.59" departLane="best" from="420899373" to="422298615#4" type="truck_truck"/>
    <trip id="truck235" depart="1958.92" departLane="best" from="618990022#0" to="-5672752#0" type="truck_truck"/>
    <trip id="truck236" depart="1967.26" departLane="best" from="-5670139" to="499172074#3" type="truck_truck"/>
    <trip id="truck237" depart="1975.59" departLane="best" from="226041032#3" to="91383966#1" type="truck_truck"/>
    <trip id="truck238" depart="1983.93" departLane="best" from="460065821#1" to="46538371#3" type="truck_truck"/>
    <trip id="truck240" depart="2000.60" departLane="best" from="5669664#0" to="196117083" type="truck_truck"/>
    <trip id="truck242" depart="2017.27" departLane="best" from="22898530#0" to="46538371#3" type="truck_truck"/>
    <trip id="truck243" depart="2025.61" departLane="best" from="618990022#0" to="-5670874#2" type="truck_truck"/>
    <trip id="truck244" depart="2033.94" departLane="best" from="-5670139" to="5670348#1" type="truck_truck"/>
    <trip id="truck246" depart="2050.62" departLane="best" from="5669664#0" to="91383966#1" type="truck_truck"/>
    <trip id="truck247" depart="2058.95" departLane="best" from="-5670139" to="5672752#1" type="truck_truck"/>
    <trip id="truck250" depart="2083.96" departLane="best" from="5672290" to="499172074#5" type="truck_truck"/>
    <trip id="truck251" depart="2092.29" departLane="best" from="618990022#0" to="5671574#1" type="truck_truck"/>
    <trip id="truck253" depart="2108.97" departLane="best" from="308322448#1" to="195743336#2" type="truck_truck"/>
    <trip id="truck254" depart="2117.30" departLane="best" from="308322446" to="5670253#0" type="truck_truck"/>
    <trip id="truck255" depart="2125.64" departLane="best" from="308322447#4" to="499172074#11" type="truck_truck"/>
    <trip id="truck256" depart="2133.97" departLane="best" from="196116975#0" to="195743336#2" type="truck_truck"/>
    <trip id="truck257" depart="2142.31" departLane="best" from="5672752#0" to="5671574#0" type="truck_truck"/>
    <trip id="truck258" depart="2150.65" departLane="best" from="-505582406" to="5672951#1" type="truck_truck"/>
    <trip id="truck259" depart="2158.98" departLane="best" from="618990022#0" to="5672951#1" type="truck_truck"/>
    <trip id="truck261" depart="2175.65" departLane="best" from="226041032#3" to="5671574#0" type="truck_truck"/>
    <trip id="truck262" depart="2183.99" departLane="best" from="496986970#1" to="5671574#1" type="truck_truck"/>
    <trip id="truck263" depart="2192.32" departLane="best" from="618990022#0" to="125480074" type="truck_truck"/>
    <trip id="truck264" depart="2200.66" departLane="best" from="308322447#4" to="308322448#1" type="truck_truck"/>
    <trip id="truck265" depart="2209.00" departLane="best" from="618990022#0" to="382740985#3" type="truck_truck"/>
    <trip id="truck266" depart="2217.33" departLane="best" from="5672290" to="226041032#0" type="truck_truck"/>
    <trip id="truck267" depart="2225.67" departLane="best" from="-5672752#0" to="196116976#6" type="truck_truck"/>
    <trip id="truck268" depart="2234.00" departLane="best" from="5670873#0" to="5670348#1" type="truck_truck"/>
    <trip id="truck269" depart="2242.34" departLane="best" from="46525065#0" to="505582406" type="truck_truck"/>
    <trip id="truck270" depart="2250.68" departLane="best" from="496989355#0" to="5672951#1" type="truck_truck"/>
    <trip id="truck271" depart="2259.01" departLane="best" from="198924778#0" to="22898530#4" type="truck_truck"/>
    <trip id="truck272" depart="2267.35" departLane="best" from="198924778#1" to="46538371#3" type="truck_truck"/>
    <trip id="truck273" depart="2275.68" departLane="best" from="-505582406" to="5671574#1" type="truck_truck"/>
    <trip id="truck274" depart="2284.02" departLane="best" from="439801903" to="46538371#3" type="truck_truck"/>
    <trip id="truck275" depart="2292.35" departLane="best" from="46525065#0" to="5670874#1" type="truck_truck"/>
    <trip id="truck276" depart="2300.69" departLane="best" from="569345537#4" to="46538371#3" type="truck_truck"/>
    <trip id="truck277" depart="2309.03" departLane="best" from="5672290" to="505582406" type="truck_truck"/>
    <trip id="truck278" depart="2317.36" departLane="best" from="226041032#0" to="46538371#3" type="truck_truck"/>
    <trip id="truck279" depart="2325.70" departLane="best" from="-5672752#0" to="-5670874#1" type="truck_truck"/>
    <trip id="truck280" depart="2334.03" departLane="best" from="22898530#0" to="5670139" type="truck_truck"/>
    <trip id="truck281" depart="2342.37" departLane="best" from="198924778#0" to="439801903" type="truck_truck"/>
    <trip id="truck282" depart="2350.71" departLane="best" from="22898530#0" to="499172074#11" type="truck_truck"/>
    <trip id="truck284" depart="2367.38" departLane="best" from="5669664#0" to="505582406" type="truck_truck"/>
    <trip id="truck285" depart="2375.71" departLane="best" from="618990022#0" to="5672951#1" type="truck_truck"/>
    <trip id="truck286" depart="2384.05" departLane="best" from="226041032#4" to="499172074#11" type="truck_truck"/>
    <trip id="truck287" depart="2392.38" departLane="best" from="-5670874#2" to="382740985#3" type="truck_truck"/>
    <trip id="truck288" depart="2400.72" departLane="best" from="618990022#6" to="5670139" type="truck_truck"/>
    <trip id="truck289" depart="2409.06" departLane="best" from="308322447#3" to="499172074#11" type="truck_truck"/>
    <trip id="truck290" depart="2417.39" departLane="best" from="308322447#1" to="5670874#1" type="truck_truck"/>
    <trip id="truck291" depart="2425.73" departLane="best" from="22898530#4" to="382740985#3" type="truck_truck"/>
    <trip id="truck292" depart="2434.06" departLane="best" from="195743336#0" to="196117083" type="truck_truck"/>
    <trip id="truck293" depart="2442.40" departLane="best" from="196116975#0" to="195743336#2" type="truck_truck"/>