<?xml version="1.0" encoding="UTF-8"?>

<!-- generated on 02/22/19 14:27:16 by Eclipse SUMO duarouter Version 1.0.1
<configuration xmlns:xsi="http://www.w3.org/2001/XMLSchema-instance" xsi:noNamespaceSchemaLocation="http://sumo.dlr.de/xsd/duarouterConfiguration.xsd">

    <input>
        <net-file value="osm.net.xml"/>
        <route-files value="osm.pedestrian.trips.xml"/>
    </input>

    <output>
        <output-file value="osm.pedestrian.rou.xml"/>
        <alternatives-output value="osm.pedestrian.rou.alt.xml"/>
    </output>

    <time>
        <begin value="0"/>
        <end value="3600.0"/>
    </time>

    <report>
        <no-warnings value="true"/>
        <ignore-errors value="true"/>
        <no-step-log value="true"/>
    </report>

</configuration>
-->

<routes xmlns:xsi="http://www.w3.org/2001/XMLSchema-instance" xsi:noNamespaceSchemaLocation="http://sumo.dlr.de/xsd/routes_file.xsd">
    <vType id="ped_pedestrian" vClass="pedestrian"/>
    <person id="ped0" type="ped_pedestrian" depart="0.00">
        <walk edges="436899191#0 308322447#3 497258108#0 541350711#1 541350711#0 569345537#4 -226041032#4"/>
    </person>
    <person id="ped1" type="ped_pedestrian" depart="0.62">
        <walk edges="153232761#2 153232761#3 153232761#4 153232761#5 153232761#6 248632175#1 460065820 125480074"/>
    </person>
    <person id="ped2" type="ped_pedestrian" depart="1.23">
        <walk edges="458452177#5 -458448233 -496986969#0 497258108#0 308322447#3 308322447#4 5669664#0 5669664#1 436899178#1 436899201"/>
    </person>
    <person id="ped3" type="ped_pedestrian" depart="1.85">
        <walk edges="5669664#0 308322447#4 308322447#3 497258108#0 541350711#1 541350711#0 -499172074#1 -499172074#2 -499172074#4"/>
    </person>
    <person id="ped4" type="ped_pedestrian" depart="2.47">
        <walk edges="308322447#3 308322447#2 308322447#1 22898530#4 22898530#3 -22898530#2"/>
    </person>
    <person id="ped5" type="ped_pedestrian" depart="3.08">
        <walk edges="113049826#2 435346675#2 113049805#1 113049805#0 436899187#1 113049819#0 113049819#1 377577994#0 377577994#1 31292685#0 31292685#1 31292686#0 31292686#1 31292683 31292684 436899206#1 377577999#0"/>
    </person>
    <person id="ped6" type="ped_pedestrian" depart="3.70">
        <walk edges="-226041032#4 569345537#4 541350711#0 541350711#1 497258108#0 497258108#1 5670253#0 436899179#1 436899206#0 436899206#1 436899206#2 113049801#2 113049801#1 113049804 330748502#1 427087531 113049811#1 113049816#0 113049816#1"/>
    </person>
    <person id="ped7" type="ped_pedestrian" depart="4.31">
        <walk edges="436899194#1 436899184#1 436899184#0 436899189#1 -5670253#1 436899179#1 162138628#0 436899198 31292685#0 113049814#1 113049814#0 427670435 427670441 113049808#1 113049808#0 36930573#1 36930573#2 321166648 427087539"/>
    </person>
    <person id="ped8" type="ped_pedestrian" depart="4.93">
        <walk edges="113049826#3 435346675#2 113049805#1 113049805#0 436899187#1 436899187#0 162138628#2 162138628#1 162138628#0 436899179#1 -5670253#1 436899189#1 109269756#3 330748491#0 330748491#1 436899194#0 436899178#0 436899178#1 436899177#1"/>
    </person>
    <person id="ped10" type="ped_pedestrian" depart="6.16">
        <walk edges="505582406 -663543997 439933933"/>
    </person>
    <person id="ped11" type="ped_pedestrian" depart="6.78">
        <walk edges="196116976#5 324118554#1 496989355#3 496989355#1 496989355#0 496986970#1 496986970#0 436899187#4 436899187#3 436899187#2 113049805#0 113049805#1 113049805#2"/>
    </person>
    <person id="ped12" type="ped_pedestrian" depart="7.40">
        <walk edges="587256611#1 330748490#0 109269756#1 -5670874#0 436899189#0 436899180 436899191#1 308322447#3 497258108#0 541350711#1 618990022#11 618990022#10 618990022#9 618990022#8 618990022#7 496989355#1 -499172074#7 196116976#3"/>
    </person>
    <person id="ped13" type="ped_pedestrian" depart="8.01">
        <walk edges="-5670139 422298615#4 436899178#0 436899194#0 330748491#1 330748491#0 109269756#3 436899189#1 -5670253#1 -5670253#0"/>
    </person>
    <person id="ped16" type="ped_pedestrian" depart="9.86">
        <walk edges="427087527 113049811#3 113049811#2 427087531 330748502#1 113049804 113049801#1 113049801#2 436899206#2 436899206#1 436899206#0 436899179#1 5670253#0 497258108#1 497258108#0 541350711#1 618990022#12"/>
    </person>
    <person id="ped17" type="ped_pedestrian" depart="10.48">
        <walk edges="248632174#1 5670348#0 248632177#4 153232761#0 153232761#1 153232761#2 153232751 29317327#0 113049826#3 113049826#2 113049826#1 128578958 45782065#1 427087535#1 514341011#6 514341011#5 514341011#4 514341011#3 514341011#2 514341011#1 427087548 427087542"/>
    </person>
    <person id="ped20" type="ped_pedestrian" depart="12.33">
        <walk edges="45782065#0 45782065#1 45782065#2 436899187#3 436899187#4 -195743152#0 460065820 125480074 -420890023"/>
    </person>
    <person id="ped21" type="ped_pedestrian" depart="12.94">
        <walk edges="128578942#1 128578942#0 427087535#1 45782065#1 45782065#2 436899187#3 436899187#4 -195743152#0 153232761#8"/>
    </person>
    <person id="ped22" type="ped_pedestrian" depart="13.56">
        <walk edges="-499172074#10 -499172074#7 496989355#1 496989355#0 496986970#1 496986970#0 436899187#4 436899187#3 436899187#2 113049805#0 113049805#1 435346675#1 128578942#2 128578942#3"/>
    </person>
    <person id="ped23" type="ped_pedestrian" depart="14.17">
        <walk edges="-5670874#0 -5670253#1 -5670253#0 420899372 29317327#3 162138628#6 153232761#4 153232761#3"/>
    </person>
    <person id="ped24" type="ped_pedestrian" depart="14.79">
        <walk edges="436899190#1 5669664#1 5669664#0 308322447#4 308322447#3 308322447#2 308322447#1 22898530#4 22898530#3 22898530#2"/>
    </person>
    <person id="ped25" type="ped_pedestrian" depart="15.41">
        <walk edges="22898530#4 22898530#3 329988122#1 153232761#9 153232761#8 -195743152#0 436899187#4 436899187#3 436899187#2 436899187#1 113049819#0 113049819#1 377577994#0 113049808#4 427670437 427670438 113049823"/>
    </person>
    <person id="ped26" type="ped_pedestrian" depart="16.02">
        <walk edges="153232761#11 -420890023 308322446 308322447#1 308322447#2 308322447#3 308322447#4 5669664#0 5669664#1 5672951#0 5672951#1"/>
    </person>
    <person id="ped27" type="ped_pedestrian" depart="16.64">
        <walk edges="436899194#0 436899194#1 436899184#1 436899184#0"/>
    </person>
    <person id="ped28" type="ped_pedestrian" depart="17.26">
        <walk edges="113049808#1 113049808#2 113049808#3 113049808#4 377577994#0 113049819#1 113049819#0 436899187#1 436899187#2 436899187#3 436899187#4 496986970#0 496986970#1 -496986969#1 -458448233 -458448243#0 458452177#2"/>
    </person>
    <person id="ped29" type="ped_pedestrian" depart="17.87">
        <walk edges="113049807#1 128582376#0 113049819#1 113049819#0 436899187#1 436899187#2 436899187#3 436899187#4 -195743152#0 186202420#0 186202420#1 439801903 248632174#1"/>
    </person>
    <person id="ped30" type="ped_pedestrian" depart="18.49">
        <walk edges="661047622 436899182#1 436899182#0 436899194#1 436899194#0 436899197#1 5669664#0 308322447#4 436899191#0"/>
    </person>
    <person id="ped31" type="ped_pedestrian" depart="19.10">
        <walk edges="427087548 514341011#0 113049816#2 113049816#1 113049816#0 113049811#1 427087531 330748502#1 113049804 113049801#1 113049801#2 436899206#2 436899206#1"/>
    </person>
    <person id="ped33" type="ped_pedestrian" depart="20.34">
        <walk edges="128578942#1 128578942#0 427087535#1 45782065#1 45782065#2 436899187#3 436899187#4 -195743152#0 153232761#8 153232761#9 329988122#1 -22898530#3"/>
    </person>
    <person id="ped34" type="ped_pedestrian" depart="20.95">
        <walk edges="186202420#0 460065820 125480074 153232761#11"/>
    </person>
    <person id="ped35" type="ped_pedestrian" depart="21.57">
        <walk edges="113049824#0 113049808#0 113049808#1 427670441 427670435 113049814#0 113049814#1 31292685#0 436899198 162138628#0 436899179#1 5670253#0 497258108#1 497258108#0 541350711#1 541350711#0 569345537#4"/>
    </person>
    <person id="ped36" type="ped_pedestrian" depart="22.19">
        <walk edges="514341011#3 162154228"/>
    </person>
    <person id="ped37" type="ped_pedestrian" depart="22.80">
        <walk edges="436899194#3 330748490#1 330748490#0 109269756#1 -5670874#0 -5670253#1 -5670253#0 420899372 496986970#0 496986970#1 5672752#0 259882488"/>
    </person>
    <person id="ped38" type="ped_pedestrian" depart="23.42">
        <walk edges="5670874#0 5670253#1 5670253#0 -196116988#0 420899373 153232761#8 153232761#9 329988122#1"/>
    </person>
    <person id="ped39" type="ped_pedestrian" depart="24.04">
        <walk edges="153232761#10 153232761#9 153232761#8 248632175#1 153232761#6 153232761#5 153232761#4 153232761#3 153232751 29317327#0 113049826#3 113049826#2 128580948"/>
    </person>
    <person id="ped40" type="ped_pedestrian" depart="24.65">
        <walk edges="427087549 113049811#3 427087527 113049811#0 113049816#0 113049816#1 113049816#2 514341011#0 514341011#1 514341011#2 514341011#3 514341011#4 514341011#5 514341011#6 427087535#1 45782065#1 128578958 113049826#1 113049826#2 113049826#3 29317327#0 153232751 153232761#2 153232761#1"/>
    </person>
    <person id="ped41" type="ped_pedestrian" depart="25.27">
        <walk edges="435347263 128578942#2 128578942#3 113049807#1 128582376#1 128582379 113049808#1 427670441 427670435 113049814#0 113049814#1 31292685#0 436899198 162138628#0 436899179#1 -5670253#1 436899189#1 109269756#3 330748491#0 330748491#1 436899194#0 436899178#0 422298615#4 5670139"/>
    </person>
    <person id="ped42" type="ped_pedestrian" depart="25.88">
        <walk edges="259888551 153232761#13 248632177#1 248632174#0 5670348#0 248632177#4 153232761#0 153232761#1 153232761#2 153232751 29317327#0 113049826#3 113049826#2"/>
    </person>
    <person id="ped43" type="ped_pedestrian" depart="26.50">
        <walk edges="663543997 196117092 420890023 125480074 460065820 -195743152#0 420899372 -5670253#0 436899179#1 436899206#0 436899206#1 377577999#0 377577999#1 377577999#2"/>
    </person>
    <person id="ped44" type="ped_pedestrian" depart="27.12">
        <walk edges="-505582406 -663543997 -439933933"/>
    </person>
    <person id="ped45" type="ped_pedestrian" depart="27.73">
        <walk edges="-5672752#1 -5672752#0 -496986969#1 -496986969#0 497258108#0 308322447#3 436899191#1 436899180 436899189#0"/>
    </person>
    <person id="ped46" type="ped_pedestrian" depart="28.35">
        <walk edges="499172074#11 499172074#9 499172074#5 496989355#1 618990022#7 618990022#8 618990022#9 618990022#10 618990022#11 541350711#1 497258108#0 308322447#3"/>
    </person>
    <person id="ped47" type="ped_pedestrian" depart="28.97">
        <walk edges="-477823038 618990022#7 618990022#6 618990022#5 196116976#0 308322448#2 308322448#1 22898530#4 22898530#3 22898530#2 22898530#0 460065820 248632175#0"/>
    </person>
    <person id="ped48" type="ped_pedestrian" depart="29.58">
        <walk edges="663543997 196117092 420890023 125480074 460065820 420899373 -196116988#0 5670253#0 5670253#1 436899189#1 436899184#0 436899184#1 436899182#0 422298615#1"/>
    </person>
    <person id="ped50" type="ped_pedestrian" depart="30.81">
        <walk edges="-196116976#4 -499172074#7 496989355#1 618990022#7 618990022#8 458452177#2 458448243#0"/>
    </person>
    <person id="ped51" type="ped_pedestrian" depart="31.43">
        <walk edges="436899206#0 436899206#1 436899206#2 113049801#2 113049801#1 113049804 330748502#1 427087531 113049811#2 113049811#3 427087527"/>
    </person>
    <person id="ped52" type="ped_pedestrian" depart="32.05">
        <walk edges="153232761#11 -420890023 308322446 308322447#1 308322447#2 308322447#3 436899191#0"/>
    </person>
    <person id="ped53" type="ped_pedestrian" depart="32.66">
        <walk edges="-570158316 570158316 -226041032#3 266861403 -499172074#1 541350711#0 541350711#1 497258108#0 497258108#1 5670253#0 436899179#1 436899206#0 31292684"/>
    </person>
    <person id="ped54" type="ped_pedestrian" depart="33.28">
        <walk edges="324118558 324118554#1 226041032#0 226041032#3 226041032#4 569345537#4 541350711#0 541350711#1 497258108#0 308322447#3 436899191#1 436899180 436899189#0 -5670874#0 109269756#1 330748490#0 587256611#1 587256611#0 587256608#1 587256610"/>
    </person>
    <person id="ped55" type="ped_pedestrian" depart="33.90">
        <walk edges="514341011#3 514341011#4 514341011#5 514341011#6 427087535#1 45782065#1 128578958 113049826#1 113049826#2 113049826#3 29317327#0 153232751 153232761#2 153232761#1"/>
    </person>
    <person id="ped56" type="ped_pedestrian" depart="34.51">
        <walk edges="377577994#0 113049808#4"/>
    </person>
    <person id="ped57" type="ped_pedestrian" depart="35.13">
        <walk edges="5670873#1 -5670253#1 436899179#1 436899206#0 436899206#1 436899206#2 113049801#2 113049801#1 113049804 330748502#1 427087531 113049811#1 113049816#0 113049816#1 113049816#2 514341011#0 514341011#1"/>
    </person>
    <person id="ped58" type="ped_pedestrian" depart="35.74">
        <walk edges="162138628#1 162138628#0 436899179#1 -5670253#1 436899189#1 109269756#3 330748491#0 330748491#1 436899194#0 436899178#0 436899190#1 436899190#2"/>
    </person>
    <person id="ped59" type="ped_pedestrian" depart="36.36">
        <walk edges="436899184#0 436899189#1 -5670253#1 436899179#1 162138628#0 162138628#1 162138628#2 436899187#0 436899187#1 113049805#0 113049805#1"/>
    </person>
    <person id="ped60" type="ped_pedestrian" depart="36.98">
        <walk edges="477823038 458452177#5 -458448233 -496986969#0 497258108#0 497258108#1 5670253#0 436899179#1 436899206#0 436899206#1 436899206#2 113049801#2 113049801#1 113049804 330748502#1 427087530"/>
    </person>
    <person id="ped61" type="ped_pedestrian" depart="37.59">
        <walk edges="496989355#3 496989355#1 618990022#7 618990022#8 618990022#9 618990022#10 618990022#11 618990022#12 195743336#0 422298615#4"/>
    </person>
    <person id="ped62" type="ped_pedestrian" depart="38.21">
        <walk edges="-195743152#0 420899372 -5670253#0 -5670253#1 436899189#1 109269756#3 330748491#0 330748491#1 436899194#0 436899178#0 422298615#4 195743336#0 195743336#1"/>
    </person>
    <person id="ped63" type="ped_pedestrian" depart="38.83">
        <walk edges="-226041032#1 496989355#3 496989355#1 496989355#0 5672752#0"/>
    </person>
    <person id="ped65" type="ped_pedestrian" depart="40.06">
        <walk edges="162138628#5 29317327#3 496986970#0 496986970#1 496989355#0 496989355#1 -499172074#4 -458448242#0"/>
    </person>
    <person id="ped66" type="ped_pedestrian" depart="40.67">
        <walk edges="514341011#4 514341011#3 514341011#2 514341011#1 514341011#0 113049816#2 113049816#1 113049816#0 113049811#1 427087531 330748502#1 113049804 113049801#1 113049801#2 436899206#2 436899206#1 436899206#0 436899179#1 -5670253#1 -5670874#0 109269756#1 330748490#0 587256611#1 587256611#0 587256608#1"/>
    </person>
    <person id="ped67" type="ped_pedestrian" depart="41.29">
        <walk edges="-499172074#4 496989355#1 496989355#0 496986970#1 496986970#0 436899187#4 436899187#3 45782065#2 45782065#1 427087535#1 514341011#6 514341011#5 514341011#4 514341011#3 514341011#2 514341011#1 427087548 427087542 330748501#1"/>
    </person>
    <person id="ped68" type="ped_pedestrian" depart="41.91">
        <walk edges="-496986969#1 -458448233 458452177#5 477823038"/>
    </person>
    <person id="ped69" type="ped_pedestrian" depart="42.52">
        <walk edges="496986969#1 496986969#0 497258108#0 308322447#3 436899191#1 436899200#0 436899200#1 109269756#4 109269756#3"/>
    </person>
    <person id="ped70" type="ped_pedestrian" depart="43.14">
        <walk edges="330748491#0 109269756#3 436899189#1 -5670253#1 436899179#1 436899206#0 436899206#1 436899206#2 436899206#3 436899206#4 436899206#5 427087542"/>
    </person>
    <person id="ped71" type="ped_pedestrian" depart="43.76">
        <walk edges="153232761#10 153232761#9 153232761#8 -195743152#0 436899187#4 436899187#3 45782065#2 45782065#1 427087535#1 514341011#6 514341011#5 514341011#4 514341011#3 514341011#2"/>
    </person>
    <person id="ped72" type="ped_pedestrian" depart="44.37">
        <walk edges="308322447#3 436899191#1 436899180 436899179#0 436899179#1 162138628#0 436899198 31292685#0 113049814#1 113049814#0 427670435 427670441 113049808#1 113049808#0 113049824#0"/>
    </person>
    <person id="ped73" type="ped_pedestrian" depart="44.99">
        <walk edges="427087530 330748502#1 113049804 113049801#1 113049801#2 436899206#2 436899206#1 436899206#0 436899179#1 5670253#0 497258108#1 497258108#0 -496986969#0 -458448233 -458448243#0 458452177#2"/>
    </person>
    <person id="ped74" type="ped_pedestrian" depart="45.60">
        <walk edges="113049816#2 514341011#0 514341011#1 514341011#2 514341011#3 514341011#4 514341011#5 514341011#6 427087535#1 45782065#1 45782065#2 436899187#3 162138628#4 162138628#5 162138628#6"/>
    </person>
    <person id="ped75" type="ped_pedestrian" depart="46.22">
        <walk edges="661047628 436899190#1 436899178#0 436899194#0 436899194#1"/>
    </person>
    <person id="ped76" type="ped_pedestrian" depart="46.84">
        <walk edges="31292685#0 113049814#1 113049814#0 427670435 427670441 113049808#1 113049808#0 36930573#1 36930573#2 321166648 427087539 514341011#4 514341011#3 514341011#2 514341011#1 514341011#0 385460486"/>
    </person>
    <person id="ped77" type="ped_pedestrian" depart="47.45">
        <walk edges="109269751 436899184#0 436899189#1 5670253#1 5670253#0 -196116988#0 420899373 460065820 125480074"/>
    </person>
    <person id="ped78" type="ped_pedestrian" depart="48.07">
        <walk edges="196116976#3 -499172074#7 496989355#1 496989355#0 496986970#1 496986970#0 29317327#3 29317327#2 29317327#1 29317327#0 113049826#3 435347264#1"/>
    </person>
    <person id="ped79" type="ped_pedestrian" depart="48.69">
        <walk edges="128578942#2 128578942#1 128578942#0 427087535#1 45782065#1 128578958 113049826#1 113049826#2"/>
    </person>
    <person id="ped80" type="ped_pedestrian" depart="49.30">
        <walk edges="-497258109 422298615#4 436899178#0 436899194#0 330748491#1 330748491#0 109269756#3 436899189#1"/>
    </person>
    <person id="ped81" type="ped_pedestrian" depart="49.92">
        <walk edges="128578942#1 128578942#0 427087535#1 45782065#1 128578958 113049826#1 113049826#2 113049826#3 29317327#0 153232751 153232761#2 153232761#1 153232761#0 248632177#4 5670348#0"/>
    </person>
    <person id="ped83" type="ped_pedestrian" depart="51.15">
        <walk edges="128578958 113049805#3 113049805#2 113049805#1 113049805#0 436899187#1 436899187#0 162138628#2 162138628#1 162138628#0 436899179#1 -5670253#1 -5670874#0 109269756#1 330748490#0 330748490#1 436899199#0 436899199#1"/>
    </person>
    <person id="ped84" type="ped_pedestrian" depart="51.77">
        <walk edges="113049824#1 427087531 330748502#1 113049804 113049801#1 113049801#2 436899206#2 436899206#1 436899206#0 436899179#1 -5670253#1 436899189#1 109269756#3 109269756#4"/>
    </person>
    <person id="ped85" type="ped_pedestrian" depart="52.38">
        <walk edges="5672951#1 5672951#0 436899178#0 436899194#0 330748491#1 330748491#0 109269756#3 436899189#1 -5670253#1 436899179#1 162138628#0 436899198 31292685#0 113049814#1 113049823 427670438"/>
    </person>
    <person id="ped86" type="ped_pedestrian" depart="53.00">
        <walk edges="330748490#1 330748490#0 109269756#1 -5670874#0 436899189#0 436899180 436899191#1 308322447#3 497258108#0 497258109"/>
    </person>
    <person id="ped88" type="ped_pedestrian" depart="54.23">
        <walk edges="-5670253#1 436899179#1 436899206#0 31292684 31292683"/>
    </person>
    <person id="ped89" type="ped_pedestrian" depart="54.85">
        <walk edges="308322447#3 308322447#2 308322447#1 329988123#1"/>
    </person>
    <person id="ped90" type="ped_pedestrian" depart="55.47">
        <walk edges="458452177#2 -458448243#0 -458448233 -496986969#0 497258108#0 308322447#3 436899191#1 436899200#0 436899200#1"/>
    </person>
    <person id="ped91" type="ped_pedestrian" depart="56.08">
        <walk edges="618990022#8 618990022#9 618990022#10 618990022#11 541350711#1 497258108#0 497258108#1 5670253#0 -5670253#1"/>
    </person>
    <person id="ped92" type="ped_pedestrian" depart="56.70">
        <walk edges="29317327#0 29317327#1 29317327#2 29317327#3 496986970#0 496986970#1 496989355#0 496989355#1 496989355#3 324118554#1 196116976#5"/>
    </person>
    <person id="ped94" type="ped_pedestrian" depart="57.93">
        <walk edges="113049811#3 113049811#2 113049824#1 113049800 36930573#2 321166648"/>
    </person>
    <person id="ped95" type="ped_pedestrian" depart="58.55">
        <walk edges="308322447#3 497258108#1 420899372 29317327#3 162138628#6 153232761#4"/>
    </person>
    <person id="ped96" type="ped_pedestrian" depart="59.16">
        <walk edges="128582376#1 128582379 113049808#1 427670441 427670435 113049814#0 113049814#1 31292685#0 436899198 162138628#0 436899179#1 -5670253#1 436899189#1 436899184#0 436899184#1 436899182#0 5671574#0 5671574#1"/>
    </person>
    <person id="ped98" type="ped_pedestrian" depart="60.40">
        <walk edges="427087542 427087548 514341011#1 514341011#2 514341011#3 514341011#4 514341011#5 514341011#6 427087535#1 45782065#1 45782065#2 436899187#3 436899187#4 496986970#0 496986970#1 -496986969#1 -458448233"/>
    </person>
    <person id="ped100" type="ped_pedestrian" depart="61.63">
        <walk edges="618990022#11 541350711#1 497258108#0 308322447#3 436899191#1 436899180 436899189#0 5670873#1 5670873#0 5672290"/>
    </person>
    <person id="ped102" type="ped_pedestrian" depart="62.86">
        <walk edges="330748501#1 436899206#5 427087549 113049811#2 113049824#1"/>
    </person>
    <person id="ped103" type="ped_pedestrian" depart="63.48">
        <walk edges="266861403 499172074#2 458448243#1 -458448243#0"/>
    </person>
    <person id="ped104" type="ped_pedestrian" depart="64.09">
        <walk edges="248632174#1 460065821#1 460065822#0 22898530#0 22898530#2 22898530#3 22898530#4 308322448#1 308322448#2 196116976#0 618990022#5 618990022#6 618990022#7 618990022#8"/>
    </person>
    <person id="ped105" type="ped_pedestrian" depart="64.71">
        <walk edges="153232761#10 22898530#2 22898530#3 22898530#4 308322447#1 308322447#2 497258108#1"/>
    </person>
    <person id="ped106" type="ped_pedestrian" depart="65.33">
        <walk edges="324118558 324118554#1 226041032#0 226041032#3 226041032#4 569345537#4 541350711#0 541350711#1 497258108#0 308322447#3"/>
    </person>
    <person id="ped107" type="ped_pedestrian" depart="65.94">
        <walk edges="587256611#1 330748490#0 109269756#1 -5670874#0 -5670253#1 -5670253#0 420899372 -195743152#0 460065820 125480074 420890023 196117092 663543997"/>
    </person>
    <person id="ped108" type="ped_pedestrian" depart="66.56">
        <walk edges="427087545 427087530 330748502#1 113049804 113049801#1 113049801#2 436899206#2 436899206#1 436899206#0 436899179#1 5670253#0 497258108#1 497258108#0 541350711#1 541350711#0 569345537#4 226041032#4 226041032#3 458448242#1"/>
    </person>
    <person id="ped109" type="ped_pedestrian" depart="67.17">
        <walk edges="113049805#1 113049805#0 436899187#1 436899187#0 162138628#2 162138628#1 162138628#0"/>
    </person>
    <person id="ped110" type="ped_pedestrian" depart="67.79">
        <walk edges="618990022#11 618990022#10 618990022#9 618990022#8 618990022#7 496989355#0 496986970#1 496986970#0 436899187#4 436899187#3 436899187#2 113049805#0 113049805#1 435346675#1"/>
    </person>
    <person id="ped111" type="ped_pedestrian" depart="68.41">
        <walk edges="427087531 113049824#1 113049824#0 113049807#0 128582376#0 113049819#1 113049819#0 436899187#1 436899187#2 436899187#3 436899187#4 -195743152#0 460065820 460065822#0"/>
    </person>
    <person id="ped112" type="ped_pedestrian" depart="69.02">
        <walk edges="-458448242#0 -499172074#4 496989355#1 496989355#0 496986970#1 496986970#0 436899187#4 436899187#3 436899187#2 113049805#0 113049805#1 435346675#1 435347263"/>
    </person>
    <person id="ped114" type="ped_pedestrian" depart="70.26">
        <walk edges="113049805#3 113049805#2 113049805#1 113049805#0 436899187#1 436899187#0 162138628#2 162138628#1 162138628#0 436899179#1 -5670253#1 -5670874#0 109269756#1 330748490#0 587256611#1 587256611#0 587256612#1"/>
    </person>
    <person id="ped115" type="ped_pedestrian" depart="70.87">
        <walk edges="-499172074#18 -499172074#10 -499172074#7 496989355#1 496989355#0 496986970#1 496986970#0 436899187#4 436899187#3 436899187#2 436899187#1 113049819#0 113049819#1 128582376#0 113049807#0 113049824#0 113049824#1 113049811#1"/>
    </person>
    <person id="ped116" type="ped_pedestrian" depart="71.49">
        <walk edges="436899178#1 436899178#0 436899203 436899200#1"/>
    </person>
    <person id="ped117" type="ped_pedestrian" depart="72.11">
        <walk edges="128578942#4 113049807#1 128582376#1 128582379 113049808#1 427670441 427670435 113049814#0 113049814#1 31292685#0 436899198 162138628#0 436899179#1 -5670253#1 436899189#1 436899184#0 109269751"/>
    </person>
    <person id="ped118" type="ped_pedestrian" depart="72.72">
        <walk edges="5669353 153232761#2 153232751 29317327#0 113049826#3 113049826#2 128580948"/>
    </person>
    <person id="ped119" type="ped_pedestrian" depart="73.34">
        <walk edges="436899178#1 436899178#0 436899194#0 330748491#1 330748491#0 109269756#3 436899189#1 -5670253#1 436899179#1 162138628#0 162138628#1 162138628#2 436899187#0 436899187#1"/>
    </person>
    <person id="ped120" type="ped_pedestrian" depart="73.95">
        <walk edges="308322447#2 496986970#0 436899187#4 436899187#3 436899187#2 113049805#0 113049805#1 435346675#1 435347263"/>
    </person>
    <person id="ped121" type="ped_pedestrian" depart="74.57">
        <walk edges="420899372 -5670253#0 -5670253#1 436899189#1 109269756#3 330748491#0 330748491#1 436899194#0 436899178#0 5672951#0 5672951#1"/>
    </person>
    <person id="ped122" type="ped_pedestrian" depart="75.19">
        <walk edges="113049819#0 436899187#1 436899187#2 436899187#3 436899187#4 496986970#0 496986970#1 496989355#0 496989355#1 -499172074#4 458448241#1"/>
    </person>
    <person id="ped123" type="ped_pedestrian" depart="75.80">
        <walk edges="128578958 45782065#2 436899187#3 436899187#4 496986970#0 496986970#1 5672752#0 259882488"/>
    </person>
    <person id="ped124" type="ped_pedestrian" depart="76.42">
        <walk edges="436899200#0 436899180 436899179#0 436899179#1 162138628#0 162138628#1"/>
    </person>
    <person id="ped125" type="ped_pedestrian" depart="77.04">
        <walk edges="186202420#0 153232761#8 153232761#9 329988122#1 22898530#3 22898530#4 308322448#1 308322448#2 196116976#0 196116976#1 196116976#3 196116976#5 46538371#0"/>
    </person>
    <person id="ped126" type="ped_pedestrian" depart="77.65">
        <walk edges="-497258109 496986969#0 496986969#1 5672752#0 5672752#1 308322448#2 308322448#1 22898530#4 22898530#3 329988122#1"/>
    </person>
    <person id="ped127" type="ped_pedestrian" depart="78.27">
        <walk edges="91383966#1 460065821#1 460065822#0 125480074 420890023 196117092 663543997"/>
    </person>
    <person id="ped128" type="ped_pedestrian" depart="78.88">
        <walk edges="-499172074#0 541350711#0 541350711#1 497258108#0 497258108#1 5670253#0 436899179#1 436899206#0 436899206#1 436899206#2 113049801#2 113049801#1 113049804 330748502#1 427087531 113049824#1"/>
    </person>
    <person id="ped129" type="ped_pedestrian" depart="79.50">
        <walk edges="153232761#10 22898530#2 22898530#3 22898530#4 308322447#1 308322447#2 308322447#3 308322447#4 5669664#0 5669664#1 5672951#0"/>
    </person>
    <person id="ped130" type="ped_pedestrian" depart="80.12">
        <walk edges="514341011#5"/>
    </person>
    <person id="ped131" type="ped_pedestrian" depart="80.73">
        <walk edges="22898530#4 22898530#3 329988122#1 153232761#9 153232761#8 -195743152#0 436899187#4 436899187#3 436899187#2 113049805#0 113049805#1 113049805#2 113049805#3"/>
    </person>
    <person id="ped133" type="ped_pedestrian" depart="81.97">
        <walk edges="436899184#1 109269751 330748491#0 109269756#4 436899200#1 436899200#0 436899191#1 308322447#3 497258108#0 541350711#1 618990022#11 618990022#10 618990022#9"/>
    </person>
    <person id="ped134" type="ped_pedestrian" depart="82.58">
        <walk edges="436899194#3 436899194#2 436899194#1 436899194#0 436899197#1 5669664#0 308322447#4 308322447#3 497258108#0 541350711#1 618990022#11 618990022#10 618990022#9 618990022#8 618990022#7 496989355#1 499172074#5 -196116976#2"/>
    </person>
    <person id="ped136" type="ped_pedestrian" depart="83.81">
        <walk edges="436899197#1 5669664#0 308322447#4 308322447#3 497258108#0 541350711#1 541350711#0 569345537#4 569345537#3 569345537#0"/>
    </person>
    <person id="ped137" type="ped_pedestrian" depart="84.43">
        <walk edges="113049800 113049824#0 113049807#0 128582376#0 113049819#1 113049819#0 436899187#1 436899187#2 436899187#3 436899187#4 -195743152#0 460065820 125480074 420890023 -420890022 -663543997"/>
    </person>
    <person id="ped138" type="ped_pedestrian" depart="85.05">
        <walk edges="-5672752#0 496986970#1 496986970#0 436899187#4 436899187#3 436899187#2 436899187#1 113049819#0 113049819#1 128582376#0 113049807#0 113049824#0 113049824#1 427087531 427087544"/>
    </person>
    <person id="ped139" type="ped_pedestrian" depart="85.66">
        <walk edges="153232761#13 153232761#12 248632173#1 460065820 420899373 -196116988#0 5670253#0 5670253#1 436899189#1 436899184#0 436899184#1 436899182#0"/>
    </person>