<?xml version="1.0" encoding="UTF-8"?>
<!-- generated on 2019-02-22 14:27:15.360907 by $Id$ via randomTrips.py
  options: 
-->
<routes xmlns:xsi="http://www.w3.org/2001/XMLSchema-instance" xsi:noNamespaceSchemaLocation="http://sumo.dlr.de/xsd/routes_file.xsd">
    <vType id="bus_bus" vClass="bus">
    </vType>
    <trip id="bus0" depart="0.00" departLane="best" from="569345537#4" to="125480074" type="bus_bus"/>
    <trip id="bus1" depart="8.34" departLane="best" from="196116975#0" to="496986970#0" type="bus_bus"/>
    <trip id="bus2" depart="16.67" departLane="best" from="-496986969#0" to="196116976#6" type="bus_bus"/>
    <trip id="bus3" depart="25.01" departLane="best" from="196116975#0" to="499172074#11" type="bus_bus"/>
    <trip id="bus4" depart="33.34" departLane="best" from="-5670139" to="186202420#0" type="bus_bus"/>
    <trip id="bus5" depart="41.68" departLane="best" from="5672290" to="5670348#0" type="bus_bus"/>
    <trip id="bus6" depart="50.02" departLane="best" from="308322447#1" to="497258109" type="bus_bus"/>
    <trip id="bus7" depart="58.35" departLane="best" from="569345537#0" to="499172074#11" type="bus_bus"/>
    <trip id="bus8" depart="66.69" departLane="best" from="-5670139" to="226041032#0" type="bus_bus"/>
    <trip id="bus9" depart="75.02" departLane="best" from="-5670139" to="308322446" type="bus_bus"/>
    <trip id="bus10" depart="83.36" departLane="best" from="308322446" to="196116976#6" type="bus_bus"/>
    <trip id="bus11" depart="91.69" departLane="best" from="46525065#0" to="5670139" type="bus_bus"/>
    <trip id="bus12" depart="100.03" departLane="best" from="198924778#1" to="22898530#3" type="bus_bus"/>
    <trip id="bus13" depart="108.37" departLane="best" from="196116975#0" to="618990022#7" type="bus_bus"/>
    <trip id="bus14" depart="116.70" departLane="best" from="569345537#0" to="308322448#1" type="bus_bus"/>
    <trip id="bus15" depart="125.04" departLane="best" from="46525065#0" to="22898530#2" type="bus_bus"/>
    <trip id="bus16" depart="133.37" departLane="best" from="308322447#4" to="196117083" type="bus_bus"/>
    <trip id="bus17" depart="141.71" departLane="best" from="-5670139" to="505582406" type="bus_bus"/>
    <trip id="bus19" depart="158.38" departLane="best" from="618990022#6" to="5672951#1" type="bus_bus"/>
    <trip id="bus20" depart="166.72" departLane="best" from="-5670253#0" to="460065822#0" type="bus_bus"/>
    <trip id="bus21" depart="175.05" departLane="best" from="569345537#0" to="22898530#2" type="bus_bus"/>
    <trip id="bus22" depart="183.39" departLane="best" from="422298615#4" to="196116976#5" type="bus_bus"/>
    <trip id="bus23" depart="191.72" departLane="best" from="618990022#0" to="5672951#1" type="bus_bus"/>
    <trip id="bus24" depart="200.06" departLane="best" from="198924778#0" to="505582406" type="bus_bus"/>
    <trip id="bus25" depart="208.40" departLane="best" from="5670874#1" to="496989355#3" type="bus_bus"/>
    <trip id="bus26" depart="216.73" departLane="best" from="569345537#0" to="5671574#1" type="bus_bus"/>
    <trip id="bus27" depart="225.07" departLane="best" from="196117083" to="5672951#1" type="bus_bus"/>
    <trip id="bus28" depart="233.40" departLane="best" from="46525065#0" to="5670348#0" type="bus_bus"/>
    <trip id="bus29" depart="241.74" departLane="best" from="-5670253#1" to="196117092" type="bus_bus"/>
    <trip id="bus30" depart="250.08" departLane="best" from="22898530#0" to="499172074#11" type="bus_bus"/>
    <trip id="bus31" depart="258.41" departLane="best" from="569345537#0" to="-5670874#2" type="bus_bus"/>
    <trip id="bus32" depart="266.75" departLane="best" from="196116975#0" to="195743336#2" type="bus_bus"/>
    <trip id="bus33" depart="275.08" departLane="best" from="618990022#10" to="499172074#11" type="bus_bus"/>
    <trip id="bus34" depart="283.42" departLane="best" from="5672290" to="196116976#6" type="bus_bus"/>
    <trip id="bus35" depart="291.75" departLane="best" from="-5670139" to="460065821#1" type="bus_bus"/>
    <trip id="bus36" depart="300.09" departLane="best" from="324118558" to="46538371#3" type="bus_bus"/>
    <trip id="bus37" depart="308.43" departLane="best" from="308322448#1" to="382740985#3" type="bus_bus"/>
    <trip id="bus38" depart="316.76" departLane="best" from="195743336#1" to="46538371#3" type="bus_bus"/>
    <trip id="bus39" depart="325.10" departLane="best" from="324118558" to="5672951#1" type="bus_bus"/>
    <trip id="bus40" depart="333.43" departLane="best" from="46525065#0" to="-5670253#1" type="bus_bus"/>
    <trip id="bus41" depart="341.77" departLane="best" from="663543997" to="5671574#1" type="bus_bus"/>
    <trip id="bus43" depart="358.44" departLane="best" from="308322448#1" to="-5670874#1" type="bus_bus"/>
    <trip id="bus44" depart="366.78" departLane="best" from="196117083" to="5670874#0" type="bus_bus"/>
    <trip id="bus45" depart="375.11" departLane="best" from="46525065#0" to="5670253#0" type="bus_bus"/>
    <trip id="bus46" depart="383.45" departLane="best" from="618990022#6" to="499172074#11" type="bus_bus"/>
    <trip id="bus47" depart="391.78" departLane="best" from="46525065#0" to="5670348#1" type="bus_bus"/>
    <trip id="bus48" depart="400.12" departLane="best" from="-505582406" to="499172074#11" type="bus_bus"/>
    <trip id="bus49" depart="408.46" departLane="best" from="-5670139" to="196116976#6" type="bus_bus"/>
    <trip id="bus50" depart="416.79" departLane="best" from="196116976#0" to="195743336#2" type="bus_bus"/>
    <trip id="bus51" depart="425.13" departLane="best" from="324118554#1" to="499172074#11" type="bus_bus"/>
    <trip id="bus52" depart="433.46" departLane="best" from="196116975#0" to="5670253#0" type="bus_bus"/>
    <trip id="bus53" depart="441.80" departLane="best" from="196116976#0" to="422298615#1" type="bus_bus"/>
    <trip id="bus54" depart="450.14" departLane="best" from="198924778#1" to="5670348#1" type="bus_bus"/>
    <trip id="bus55" depart="458.47" departLane="best" from="-505582406" to="46538371#3" type="bus_bus"/>
    <trip id="bus56" depart="466.81" departLane="best" from="569345537#0" to="5672951#1" type="bus_bus"/>
    <trip id="bus57" depart="475.14" departLane="best" from="5672752#0" to="5670139" type="bus_bus"/>
    <trip id="bus58" depart="483.48" departLane="best" from="5669664#0" to="196116976#6" type="bus_bus"/>
    <trip id="bus60" depart="500.15" departLane="best" from="324118558" to="-196116988#0" type="bus_bus"/>
    <trip id="bus61" depart="508.49" departLane="best" from="-505582406" to="5672951#1" type="bus_bus"/>
    <trip id="bus62" depart="516.82" departLane="best" from="618990022#0" to="497258108#1" type="bus_bus"/>
    <trip id="bus63" depart="525.16" departLane="best" from="5672752#1" to="499172074#11" type="bus_bus"/>
    <trip id="bus64" depart="533.49" departLane="best" from="-5672752#0" to="195743336#2" type="bus_bus"/>
    <trip id="bus65" depart="541.83" departLane="best" from="618990022#0" to="196116976#6" type="bus_bus"/>
    <trip id="bus66" depart="550.17" departLane="best" from="569345537#0" to="91383966#1" type="bus_bus"/>
    <trip id="bus67" depart="558.50" departLane="best" from="5672290" to="22898530#3" type="bus_bus"/>
    <trip id="bus68" depart="566.84" departLane="best" from="569345537#0" to="5672951#1" type="bus_bus"/>
    <trip id="bus69" depart="575.17" departLane="best" from="196116975#0" to="5671574#1" type="bus_bus"/>
    <trip id="bus71" depart="591.84" departLane="best" from="-496986969#0" to="196116976#6" type="bus_bus"/>
    <trip id="bus72" depart="600.18" departLane="best" from="226041032#3" to="5672951#1" type="bus_bus"/>
    <trip id="bus73" depart="608.52" departLane="best" from="-5670139" to="460065822#0" type="bus_bus"/>
    <trip id="bus74" depart="616.85" departLane="best" from="5669664#1" to="308322448#1" type="bus_bus"/>
    <trip id="bus75" depart="625.19" departLane="best" from="308322447#2" to="499172074#11" type="bus_bus"/>
    <trip id="bus76" depart="633.52" departLane="best" from="196116976#3" to="5670139" type="bus_bus"/>
    <trip id="bus77" depart="641.86" departLane="best" from="46525065#0" to="5670253#0" type="bus_bus"/>
    <trip id="bus78" depart="650.20" departLane="best" from="22898530#4" to="-5670874#2" type="bus_bus"/>
    <trip id="bus79" depart="658.53" departLane="best" from="499172074#0" to="382740985#0" type="bus_bus"/>
    <trip id="bus80" depart="666.87" departLane="best" from="198924778#1" to="5672752#1" type="bus_bus"/>
    <trip id="bus81" depart="675.20" departLane="best" from="198924778#0" to="439801903" type="bus_bus"/>
    <trip id="bus82" depart="683.54" departLane="best" from="-5670874#0" to="460065820" type="bus_bus"/>
    <trip id="bus83" depart="691.87" departLane="best" from="618990022#0" to="499172074#5" type="bus_bus"/>
    <trip id="bus84" depart="700.21" departLane="best" from="324118558" to="499172074#11" type="bus_bus"/>
    <trip id="bus85" depart="708.55" departLane="best" from="497258108#1" to="46538371#3" type="bus_bus"/>
    <trip id="bus86" depart="716.88" departLane="best" from="5672290" to="196116976#3" type="bus_bus"/>
    <trip id="bus87" depart="725.22" departLane="best" from="-5670139" to="496986970#1" type="bus_bus"/>
    <trip id="bus88" depart="733.55" departLane="best" from="5672290" to="5670348#1" type="bus_bus"/>
    <trip id="bus89" depart="741.89" departLane="best" from="499172074#1" to="196117092" type="bus_bus"/>
    <trip id="bus90" depart="750.23" departLane="best" from="196116975#0" to="-496986969#0" type="bus_bus"/>
    <trip id="bus91" depart="758.56" departLane="best" from="196116976#1" to="46538371#3" type="bus_bus"/>
    <trip id="bus92" depart="766.90" departLane="best" from="196116975#0" to="5670139" type="bus_bus"/>
    <trip id="bus94" depart="783.57" departLane="best" from="-5670139" to="460065820" type="bus_bus"/>
    <trip id="bus95" depart="791.90" departLane="best" from="460065820" to="-5670253#1" type="bus_bus"/>
    <trip id="bus97" depart="808.58" departLane="best" from="499172074#0" to="91383966#1" type="bus_bus"/>
    <trip id="bus98" depart="816.91" departLane="best" from="618990022#0" to="5670348#1" type="bus_bus"/>
    <trip id="bus99" depart="825.25" departLane="best" from="-5670139" to="308322447#1" type="bus_bus"/>
    <trip id="bus100" depart="833.58" departLane="best" from="46525065#0" to="195743336#2" type="bus_bus"/>
    <trip id="bus101" depart="841.92" departLane="best" from="196116975#4" to="5670139" type="bus_bus"/>
    <trip id="bus102" depart="850.26" departLane="best" from="569345537#0" to="5670348#1" type="bus_bus"/>
    <trip id="bus103" depart="858.59" departLane="best" from="324118554#1" to="5670348#1" type="bus_bus"/>
    <trip id="bus104" depart="866.93" departLane="best" from="46525065#0" to="499172074#2" type="bus_bus"/>
    <trip id="bus105" depart="875.26" departLane="best" from="420890023" to="195743336#2" type="bus_bus"/>
    <trip id="bus106" depart="883.60" departLane="best" from="-5670874#1" to="46538371#3" type="bus_bus"/>
    <trip id="bus107" depart="891.93" departLane="best" from="196116975#0" to="324118554#1" type="bus_bus"/>
    <trip id="bus108" depart="900.27" departLane="best" from="497258108#1" to="5670348#1" type="bus_bus"/>
    <trip id="bus109" depart="908.61" departLane="best" from="618990022#12" to="196116976#6" type="bus_bus"/>
    <trip id="bus110" depart="916.94" departLane="best" from="46525065#0" to="196117083" type="bus_bus"/>
    <trip id="bus113" depart="941.95" departLane="best" from="618990022#3" to="422298615#1" type="bus_bus"/>
    <trip id="bus114" depart="950.29" departLane="best" from="-5670253#1" to="91383966#1" type="bus_bus"/>
    <trip id="bus115" depart="958.62" departLane="best" from="5670874#2" to="382740985#3" type="bus_bus"/>
    <trip id="bus116" depart="966.96" departLane="best" from="439801903" to="382740985#3" type="bus_bus"/>
    <trip id="bus117" depart="975.29" departLane="best" from="569345537#0" to="5671574#1" type="bus_bus"/>
    <trip id="bus118" depart="983.63" departLane="best" from="-5670139" to="618990022#9" type="bus_bus"/>
    <trip id="bus119" depart="991.96" departLane="best" from="496989355#3" to="5671574#1" type="bus_bus"/>
    <trip id="bus120" depart="1000.30" departLane="best" from="541350711#0" to="460065822#0" type="bus_bus"/>
    <trip id="bus121" depart="1008.64" departLane="best" from="196117092" to="5671574#1" type="bus_bus"/>
    <trip id="bus122" depart="1016.97" departLane="best" from="46525065#0" to="46583189#1" type="bus_bus"/>
    <trip id="bus123" depart="1025.31" departLane="best" from="196117083" to="5672951#0" type="bus_bus"/>
    <trip id="bus124" depart="1033.64" departLane="best" from="196116975#0" to="5670874#2" type="bus_bus"/>
    <trip id="bus125" depart="1041.98" departLane="best" from="22898530#0" to="5672951#1" type="bus_bus"/>
    <trip id="bus127" depart="1058.65" departLane="best" from="-5670139" to="196117092" type="bus_bus"/>
    <trip id="bus128" depart="1066.99" departLane="best" from="46583189#1" to="46538371#3" type="bus_bus"/>
    <trip id="bus130" depart="1083.66" departLane="best" from="196116976#3" to="195743336#2" type="bus_bus"/>
    <trip id="bus131" depart="1091.99" departLane="best" from="195743336#0" to="196117083" type="bus_bus"/>
    <trip id="bus132" depart="1100.33" departLane="best" from="198924778#0" to="186202420#1" type="bus_bus"/>
    <trip id="bus134" depart="1117.00" departLane="best" from="195743336#0" to="-196117083" type="bus_bus"/>
    <trip id="bus136" depart="1133.67" departLane="best" from="569345537#0" to="499172074#11" type="bus_bus"/>
    <trip id="bus137" depart="1142.01" departLane="best" from="420899372" to="46538371#0" type="bus_bus"/>
    <trip id="bus138" depart="1150.35" departLane="best" from="46525065#0" to="308322447#4" type="bus_bus"/>
    <trip id="bus139" depart="1158.68" departLane="best" from="663543997" to="195743336#2" type="bus_bus"/>
    <trip id="bus141" depart="1175.35" departLane="best" from="460065820" to="46538371#3" type="bus_bus"/>
    <trip id="bus142" depart="1183.69" departLane="best" from="324118558" to="5672951#1" type="bus_bus"/>
    <trip id="bus143" depart="1192.02" departLane="best" from="196116975#0" to="196116976#6" type="bus_bus"/>
    <trip id="bus144" depart="1200.36" departLane="best" from="-195743152#0" to="46538371#3" type="bus_bus"/>
    <trip id="bus145" depart="1208.70" departLane="best" from="196116975#4" to="5670139" type="bus_bus"/>
    <trip id="bus148" depart="1233.70" departLane="best" from="324118558" to="497258108#1" type="bus_bus"/>
    <trip id="bus149" depart="1242.04" departLane="best" from="5672290" to="-5672752#0" type="bus_bus"/>
    <trip id="bus150" depart="1250.38" departLane="best" from="186202420#0" to="308322447#4" type="bus_bus"/>
    <trip id="bus152" depart="1267.05" departLane="best" from="499172074#3" to="5670139" type="bus_bus"/>
    <trip id="bus153" depart="1275.38" departLane="best" from="422298615#1" to="-5672752#1" type="bus_bus"/>
    <trip id="bus154" depart="1283.72" departLane="best" from="-497258109" to="460065821#1" type="bus_bus"/>
    <trip id="bus156" depart="1300.39" departLane="best" from="5672752#1" to="499172074#11" type="bus_bus"/>
    <trip id="bus157" depart="1308.73" departLane="best" from="618990022#12" to="91383966#1" type="bus_bus"/>
    <trip id="bus158" depart="1317.06" departLane="best" from="-497258109" to="5670348#1" type="bus_bus"/>
    <trip id="bus159" depart="1325.40" departLane="best" from="420899372" to="505582406" type="bus_bus"/>
    <trip id="bus160" depart="1333.73" departLane="best" from="618990022#0" to="196116976#6" type="bus_bus"/>
    <trip id="bus161" depart="1342.07" departLane="best" from="46583189#1" to="505582406" type="bus_bus"/>
    <trip id="bus162" depart="1350.41" departLane="best" from="422298615#1" to="186202420#0" type="bus_bus"/>
    <trip id="bus163" depart="1358.74" departLane="best" from="226041032#3" to="5670139" type="bus_bus"/>
    <trip id="bus165" depart="1375.41" departLane="best" from="195743336#1" to="382740985#3" type="bus_bus"/>
    <trip id="bus166" depart="1383.75" departLane="best" from="5670873#0" to="499172074#9" type="bus_bus"/>
    <trip id="bus167" depart="1392.08" departLane="best" from="5670873#1" to="196116976#6" type="bus_bus"/>
    <trip id="bus169" depart="1408.76" departLane="best" from="324118558" to="5670139" type="bus_bus"/>
    <trip id="bus170" depart="1417.09" departLane="best" from="-5670253#1" to="91383966#1" type="bus_bus"/>
    <trip id="bus171" depart="1425.43" departLane="best" from="-5672752#1" to="497258109" type="bus_bus"/>
    <trip id="bus172" depart="1433.76" departLane="best" from="46525065#0" to="186202420#0" type="bus_bus"/>
    <trip id="bus173" depart="1442.10" departLane="best" from="196117092" to="5671574#1" type="bus_bus"/>
    <trip id="bus174" depart="1450.44" departLane="best" from="46525065#0" to="420899373" type="bus_bus"/>
    <trip id="bus175" depart="1458.77" departLane="best" from="618990022#0" to="496986970#0" type="bus_bus"/>
    <trip id="bus176" depart="1467.11" departLane="best" from="569345537#0" to="5672951#1" type="bus_bus"/>
    <trip id="bus177" depart="1475.44" departLane="best" from="439801903" to="5671574#1" type="bus_bus"/>
    <trip id="bus178" depart="1483.78" departLane="best" from="46583189#2" to="91383966#1" type="bus_bus"/>
    <trip id="bus180" depart="1500.45" departLane="best" from="46525065#0" to="382740985#3" type="bus_bus"/>
    <trip id="bus181" depart="1508.79" departLane="best" from="46525065#0" to="497258108#1" type="bus_bus"/>
    <trip id="bus182" depart="1517.12" departLane="best" from="46525065#0" to="226041032#0" type="bus_bus"/>
    <trip id="bus183" depart="1525.46" departLane="best" from="460065821#1" to="46538371#3" type="bus_bus"/>
    <trip id="bus184" depart="1533.79" departLane="best" from="5669664#0" to="439801903" type="bus_bus"/>
    <trip id="bus185" depart="1542.13" departLane="best" from="420899372" to="91383966#1" type="bus_bus"/>
    <trip id="bus186" depart="1550.47" departLane="best" from="22898530#0" to="5670139" type="bus_bus"/>
    <trip id="bus187" depart="1558.80" departLane="best" from="569345537#0" to="5672951#1" type="bus_bus"/>
    <trip id="bus188" depart="1567.14" departLane="best" from="5669664#0" to="5670348#1" type="bus_bus"/>
    <trip id="bus189" depart="1575.47" departLane="best" from="618990022#0" to="91383966#1" type="bus_bus"/>
    <trip id="bus190" depart="1583.81" departLane="best" from="-5670139" to="505582406" type="bus_bus"/>
    <trip id="bus191" depart="1592.14" departLane="best" from="-505582406" to="5670874#2" type="bus_bus"/>
    <trip id="bus192" depart="1600.48" departLane="best" from="46525065#0" to="5670874#1" type="bus_bus"/>
    <trip id="bus193" depart="1608.82" departLane="best" from="-5670874#2" to="46538371#3" type="bus_bus"/>
    <trip id="bus194" depart="1617.15" departLane="best" from="618990022#0" to="5669664#1" type="bus_bus"/>
    <trip id="bus195" depart="1625.49" departLane="best" from="22898530#2" to="499172074#11" type="bus_bus"/>
    <trip id="bus196" depart="1633.82" departLane="best" from="499172074#3" to="5670348#1" type="bus_bus"/>
    <trip id="bus197" depart="1642.16" departLane="best" from="496986970#0" to="382740985#3" type="bus_bus"/>
    <trip id="bus198" depart="1650.50" departLane="best" from="324118558" to="499172074#11" type="bus_bus"/>
    <trip id="bus199" depart="1658.83" departLane="best" from="198924778#0" to="5670348#1" type="bus_bus"/>
    <trip id="bus200" depart="1667.17" departLane="best" from="186202420#1" to="195743336#2" type="bus_bus"/>
    <trip id="bus201" depart="1675.50" departLane="best" from="46525065#0" to="91383966#1" type="bus_bus"/>
    <trip id="bus202" depart="1683.84" departLane="best" from="460065821#1" to="618990022#11" type="bus_bus"/>
    <trip id="bus203" depart="1692.17" departLane="best" from="5672290" to="5670348#1" type="bus_bus"/>
    <trip id="bus204" depart="1700.51" departLane="best" from="22898530#0" to="195743336#1" type="bus_bus"/>
    <trip id="bus205" depart="1708.85" departLane="best" from="618990022#5" to="195743336#2" type="bus_bus"/>
    <trip id="bus206" depart="1717.18" departLane="best" from="618990022#6" to="5672951#1" type="bus_bus"/>
    <trip id="bus207" depart="1725.52" departLane="best" from="5669664#1" to="91383966#1" type="bus_bus"/>
    <trip id="bus208" depart="1733.85" departLane="best" from="618990022#6" to="5671574#0" type="bus_bus"/>
    <trip id="bus209" depart="1742.19" departLane="best" from="308322446" to="5670874#1" type="bus_bus"/>
    <trip id="bus210" depart="1750.53" departLane="best" from="324118558" to="5669664#0" type="bus_bus"/>
    <trip id="bus211" depart="1758.86" departLane="best" from="499172074#1" to="499172074#11" type="bus_bus"/>
    <trip id="bus212" depart="1767.20" departLane="best" from="5672290" to="618990022#6" type="bus_bus"/>
    <trip id="bus213" depart="1775.53" departLane="best" from="-5670139" to="226041032#0" type="bus_bus"/>
    <trip id="bus214" depart="1783.87" departLane="best" from="-496986969#0" to="5672951#1" type="bus_bus"/>
    <trip id="bus215" depart="1792.20" departLane="best" from="46525065#0" to="618990022#11" type="bus_bus"/>
    <trip id="bus216" depart="1800.54" departLane="best" from="196116975#0" to="-5670874#1" type="bus_bus"/>
    <trip id="bus217" depart="1808.88" departLane="best" from="198924778#0" to="439801903" type="bus_bus"/>
    <trip id="bus218" depart="1817.21" departLane="best" from="-5670874#1" to="46538371#3" type="bus_bus"/>
    <trip id="bus219" depart="1825.55" departLane="best" from="499172074#1" to="5670348#1" type="bus_bus"/>
    <trip id="bus222" depart="1850.56" departLane="best" from="46525065#0" to="91383966#1" type="bus_bus"/>
    <trip id="bus223" depart="1858.89" departLane="best" from="22898530#4" to="422298615#1" type="bus_bus"/>
    <trip id="bus225" depart="1875.56" departLane="best" from="499172074#0" to="505582406" type="bus_bus"/>
    <trip id="bus226" depart="1883.90" departLane="best" from="-195743152#0" to="5672951#1" type="bus_bus"/>
    <trip id="bus227" depart="1892.23" departLane="best" from="-196117083" to="5670874#1" type="bus_bus"/>
    <trip id="bus228" depart="1900.57" departLane="best" from="186202420#1" to="-5670874#0" type="bus_bus"/>
    <trip id="bus229" depart="1908.91" departLane="best" from="5670253#1" to="496989355#1" type="bus_bus"/>
    <trip id="bus231" depart="1925.58" departLane="best" from="-5670139" to="496986970#0" type="bus_bus"/>
    <trip id="bus232" depart="1933.91" departLane="best" from="460065820" to="46538371#3" type="bus_bus"/>
    <trip id="bus233" depart="1942.25" departLane="best" from="618990022#5" to="-5670874#1" type="bus_bus"/>
    <trip id="bus234" depart="1950.59" departLane="best" from="420899373" to="422298615#4" type="bus_bus"/>
    <trip id="bus235" depart="1958.92" departLane="best" from="618990022#0" to="-5672752#0" type="bus_bus"/>
    <trip id="bus236" depart="1967.26" departLane="best" from="-5670139" to="499172074#3" type="bus_bus"/>
    <trip id="bus237" depart="1975.59" departLane="best" from="226041032#3" to="91383966#1" type="bus_bus"/>
    <trip id="bus238" depart="1983.93" departLane="best" from="460065821#1" to="46538371#3" type="bus_bus"/>
    <trip id="bus240" depart="2000.60" departLane="best" from="5669664#0" to="196117083" type="bus_bus"/>
    <trip id="bus242" depart="2017.27" departLane="best" from="22898530#0" to="46538371#3" type="bus_bus"/>
    <trip id="bus243" depart="2025.61" departLane="best" from="618990022#0" to="-5670874#2" type="bus_bus"/>
    <trip id="bus244" depart="2033.94" departLane="best" from="-5670139" to="5670348#1" type="bus_bus"/>
    <trip id="bus246" depart="2050.62" departLane="best" from="5669664#0" to="91383966#1" type="bus_bus"/>
    <trip id="bus247" depart="2058.95" departLane="best" from="-5670139" to="5672752#1" type="bus_bus"/>
    <trip id="bus250" depart="2083.96" departLane="best" from="5672290" to="499172074#5" type="bus_bus"/>
    <trip id="bus251" depart="2092.29" departLane="best" from="618990022#0" to="5671574#1" type="bus_bus"/>
    <trip id="bus253" depart="2108.97" departLane="best" from="308322448#1" to="195743336#2" type="bus_bus"/>
    <trip id="bus254" depart="2117.30" departLane="best" from="308322446" to="5670253#0" type="bus_bus"/>
    <trip id="bus255" depart="2125.64" departLane="best" from="308322447#4" to="499172074#11" type="bus_bus"/>
    <trip id="bus256" depart="2133.97" departLane="best" from="196116975#0" to="195743336#2" type="bus_bus"/>
    <trip id="bus257" depart="2142.31" departLane="best" from="5672752#0" to="5671574#0" type="bus_bus"/>
    <trip id="bus258" depart="2150.65" departLane="best" from="-505582406" to="5672951#1" type="bus_bus"/>
    <trip id="bus259" depart="2158.98" departLane="best" from="618990022#0" to="5672951#1" type="bus_bus"/>
    <trip id="bus261" depart="2175.65" departLane="best" from="226041032#3" to="5671574#0" type="bus_bus"/>
    <trip id="bus262" depart="2183.99" departLane="best" from="496986970#1" to="5671574#1" type="bus_bus"/>
    <trip id="bus263" depart="2192.32" departLane="best" from="618990022#0" to="125480074" type="bus_bus"/>
    <trip id="bus264" depart="2200.66" departLane="best" from="308322447#4" to="308322448#1" type="bus_bus"/>
    <trip id="bus265" depart="2209.00" departLane="best" from="618990022#0" to="382740985#3" type="bus_bus"/>
    <trip id="bus266" depart="2217.33" departLane="best" from="5672290" to="226041032#0" type="bus_bus"/>
    <trip id="bus267" depart="2225.67" departLane="best" from="-5672752#0" to="196116976#6" type="bus_bus"/>
    <trip id="bus268" depart="2234.00" departLane="best" from="5670873#0" to="5670348#1" type="bus_bus"/>
    <trip id="bus269" depart="2242.34" departLane="best" from="46525065#0" to="505582406" type="bus_bus"/>
    <trip id="bus270" depart="2250.68" departLane="best" from="496989355#0" to="5672951#1" type="bus_bus"/>
    <trip id="bus271" depart="2259.01" departLane="best" from="198924778#0" to="22898530#4" type="bus_bus"/>
    <trip id="bus272" depart="2267.35" departLane="best" from="198924778#1" to="46538371#3" type="bus_bus"/>
    <trip id="bus273" depart="2275.68" departLane="best" from="-505582406" to="5671574#1" type="bus_bus"/>
    <trip id="bus274" depart="2284.02" departLane="best" from="439801903" to="46538371#3" type="bus_bus"/>
    <trip id="bus275" depart="2292.35" departLane="best" from="46525065#0" to="5670874#1" type="bus_bus"/>
    <trip id="bus276" depart="2300.69" departLane="best" from="569345537#4" to="46538371#3" type="bus_bus"/>
    <trip id="bus277" depart="2309.03" departLane="best" from="5672290" to="505582406" type="bus_bus"/>
    <trip id="bus278" depart="2317.36" departLane="best" from="226041032#0" to="46538371#3" type="bus_bus"/>
    <trip id="bus279" depart="2325.70" departLane="best" from="-5672752#0" to="-5670874#1" type="bus_bus"/>
    <trip id="bus280" depart="2334.03" departLane="best" from="22898530#0" to="5670139" type="bus_bus"/>
    <trip id="bus281" depart="2342.37" departLane="best" from="198924778#0" to="439801903" type="bus_bus"/>
    <trip id="bus282" depart="2350.71" departLane="best" from="22898530#0" to="499172074#11" type="bus_bus"/>
    <trip id="bus284" depart="2367.38" departLane="best" from="5669664#0" to="505582406" type="bus_bus"/>
    <trip id="bus285" depart="2375.71" departLane="best" from="618990022#0" to="5672951#1" type="bus_bus"/>
    <trip id="bus286" depart="2384.05" departLane="best" from="226041032#4" to="499172074#11" type="bus_bus"/>
    <trip id="bus287" depart="2392.38" departLane="best" from="-5670874#2" to="382740985#3" type="bus_bus"/>
    <trip id="bus288" depart="2400.72" departLane="best" from="618990022#6" to="5670139" type="bus_bus"/>
    <trip id="bus289" depart="2409.06" departLane="best" from="308322447#3" to="499172074#11" type="bus_bus"/>
    <trip id="bus290" depart="2417.39" departLane="best" from="308322447#1" to="5670874#1" type="bus_bus"/>
    <trip id="bus291" depart="2425.73" departLane="best" from="22898530#4" to="382740985#3" type="bus_bus"/>
    <trip id="bus292" depart="2434.06" departLane="best" from="195743336#0" to="196117083" type="bus_bus"/>
    <trip id="bus293" depart="2442.40" departLane="best" from="196116975#0" to="195743336#2" type="bus_bus"/>
    <trip id="bus294" depart="2450.74" departLane="best" from="-5670139" to="5672752#0" type="bus_bus"/>
    <trip id="bus295" depart="2459.07" departLane="best" from="5672752#1" to="5672951#1" type="bus_bus"/>
    <trip id="bus296" depart="2467.41" departLane="best" from="-497258109" to="382740985#3" type="bus_bus"/>
    <trip id="bus297" depart="2475.74" departLane="best" from="5672290" to="196116976#1" type="bus_bus"/>
    <trip id="bus299" depart="2492.41" departLane="best" from="460065822#0" to="308322447#4" type="bus_bus"/>
    <trip id="bus300" depart="2500.75" departLane="best" from="5672290" to="46538371#3" type="bus_bus"/>
    <trip id="bus301" depart="2509.09" departLane="best" from="618990022#12" to="91383966#1" type="bus_bus"/>
    <trip id="bus302" depart="2517.42" departLane="best" from="618990022#6" to="5671574#1" type="bus_bus"/>
    <trip id="bus303" depart="2525.76" departLane="best" from="-5670139" to="5672752#1" type="bus_bus"/>
    <trip id="bus304" depart="2534.09" departLane="best" from="569345537#0" to="308322447#1" type="bus_bus"/>
    <trip id="bus305" depart="2542.43" departLane="best" from="5670873#1" to="22898530#4" type="bus_bus"/>
    <trip id="bus306" depart="2550.77" departLane="best" from="618990022#0" to="195743336#2" type="bus_bus"/>
    <trip id="bus307" depart="2559.10" departLane="best" from="196116975#0" to="46538371#3" type="bus_bus"/>
    <trip id="bus308" depart="2567.44" departLane="best" from="618990022#0" to="5672752#0" type="bus_bus"/>
    <trip id="bus309" depart="2575.77" departLane="best" from="5672752#0" to="5670139" type="bus_bus"/>