<?xml version="1.0" encoding="UTF-8"?>

<!-- generated on 02/22/19 14:27:15 by Eclipse SUMO duarouter Version 1.0.1
<configuration xmlns:xsi="http://www.w3.org/2001/XMLSchema-instance" xsi:noNamespaceSchemaLocation="http://sumo.dlr.de/xsd/duarouterConfiguration.xsd">

    <input>
        <net-file value="osm.net.xml"/>
        <route-files value="osm.bus.trips.xml"/>
    </input>

    <output>
        <output-file value="osm.bus.rou.xml"/>
        <alternatives-output value="osm.bus.rou.alt.xml"/>
    </output>

    <time>
        <begin value="0"/>
        <end value="3600.0"/>
    </time>

    <report>
        <no-warnings value="true"/>
        <ignore-errors value="true"/>
        <no-step-log value="true"/>
    </report>

</configuration>
-->

<routes xmlns:xsi="http://www.w3.org/2001/XMLSchema-instance" xsi:noNamespaceSchemaLocation="http://sumo.dlr.de/xsd/routes_file.xsd">
    <vType id="bus_bus" vClass="bus"/>
    <vehicle id="bus0" type="bus_bus" depart="0.00" departLane="best">
        <route edges="569345537#4 541350711#0 541350711#1 496986969#0 496986969#1 5672752#0 5672752#1 196117083 196117092 420890023 125480074"/>
    </vehicle>
    <vehicle id="bus1" type="bus_bus" depart="8.34" departLane="best">
        <route edges="196116975#0 196116975#4 460065822#0 460065820 420899373 496986970#0"/>
    </vehicle>
    <vehicle id="bus2" type="bus_bus" depart="16.67" departLane="best">
        <route edges="-496986969#0 496986969#0 496986969#1 496989355#0 496989355#1 496989355#3 382740985#0 46538371#0 196116976#6"/>
    </vehicle>
    <vehicle id="bus3" type="bus_bus" depart="25.01" departLane="best">
        <route edges="196116975#0 196116975#4 460065822#0 22898530#0 22898530#2 22898530#3 22898530#4 308322448#1 308322448#2 196116976#0 196116976#1 499172074#9 499172074#11"/>
    </vehicle>
    <vehicle id="bus4" type="bus_bus" depart="33.34" departLane="best">
        <route edges="-5670139 -497258109 497258108#0 497258108#1 420899372 -195743152#0 186202420#0"/>
    </vehicle>
    <vehicle id="bus5" type="bus_bus" depart="41.68" departLane="best">
        <route edges="5672290 5670873#0 5670873#1 -5670253#1 -5670253#0 420899372 -195743152#0 439801903 5670348#0"/>
    </vehicle>
    <vehicle id="bus6" type="bus_bus" depart="50.02" departLane="best">
        <route edges="308322447#1 496986970#1 -496986969#1 -496986969#0 497258109"/>
    </vehicle>
    <vehicle id="bus7" type="bus_bus" depart="58.35" departLane="best">
        <route edges="569345537#0 569345537#3 569345537#4 499172074#1 499172074#2 499172074#3 499172074#5 499172074#9 499172074#11"/>
    </vehicle>
    <vehicle id="bus8" type="bus_bus" depart="66.69" departLane="best">
        <route edges="-5670139 195743336#0 195743336#1 499172074#0 499172074#1 499172074#2 499172074#3 496989355#3 226041032#0"/>
    </vehicle>
    <vehicle id="bus9" type="bus_bus" depart="75.02" departLane="best">
        <route edges="-5670139 -497258109 496986969#0 496986969#1 5672752#0 5672752#1 196117083 196117092 308322446"/>
    </vehicle>
    <vehicle id="bus10" type="bus_bus" depart="83.36" departLane="best">
        <route edges="308322446 308322448#1 308322448#2 196116976#0 196116976#1 196116976#3 196116976#5 196116976#6"/>
    </vehicle>
    <vehicle id="bus11" type="bus_bus" depart="91.69" departLane="best">
        <route edges="46525065#0 308322446 308322448#1 308322448#2 -5672752#1 -5672752#0 -496986969#1 -496986969#0 497258109 5670139"/>
    </vehicle>
    <vehicle id="bus12" type="bus_bus" depart="100.03" departLane="best">
        <route edges="198924778#1 -5670874#2 -5670874#1 -5670874#0 -5670253#1 -5670253#0 420899372 -195743152#0 439801903 460065821#1 460065822#0 22898530#0 22898530#2 22898530#3"/>
    </vehicle>
    <vehicle id="bus13" type="bus_bus" depart="108.37" departLane="best">
        <route edges="196116975#0 196116975#4 460065822#0 22898530#0 22898530#2 22898530#3 22898530#4 308322448#1 308322448#2 196116976#0 618990022#5 618990022#6 618990022#7"/>
    </vehicle>
    <vehicle id="bus14" type="bus_bus" depart="116.70" departLane="best">
        <route edges="569345537#0 569345537#3 569345537#4 541350711#0 541350711#1 496986969#0 496986969#1 5672752#0 5672752#1 196117083 196117092 308322446 308322448#1"/>
    </vehicle>
    <vehicle id="bus15" type="bus_bus" depart="125.04" departLane="best">
        <route edges="46525065#0 420890023 125480074 22898530#0 22898530#2"/>
    </vehicle>
    <vehicle id="bus16" type="bus_bus" depart="133.37" departLane="best">
        <route edges="308322447#4 5669664#0 5669664#1 422298615#4 -497258109 496986969#0 496986969#1 5672752#0 5672752#1 196117083"/>
    </vehicle>
    <vehicle id="bus17" type="bus_bus" depart="141.71" departLane="best">
        <route edges="-5670139 -497258109 496986969#0 496986969#1 5672752#0 5672752#1 196117083 505582406"/>
    </vehicle>
    <vehicle id="bus19" type="bus_bus" depart="158.38" departLane="best">
        <route edges="618990022#6 618990022#7 618990022#8 618990022#9 618990022#10 618990022#11 541350711#1 497258108#0 308322447#3 308322447#4 5669664#0 5669664#1 5672951#0 5672951#1"/>
    </vehicle>
    <vehicle id="bus20" type="bus_bus" depart="166.72" departLane="best">
        <route edges="-5670253#0 420899372 -195743152#0 439801903 460065821#1 460065822#0"/>
    </vehicle>
    <vehicle id="bus21" type="bus_bus" depart="175.05" departLane="best">
        <route edges="569345537#0 569345537#3 569345537#4 541350711#0 541350711#1 496986969#0 496986969#1 5672752#0 5672752#1 196117083 196117092 420890023 125480074 22898530#0 22898530#2"/>
    </vehicle>
    <vehicle id="bus22" type="bus_bus" depart="183.39" departLane="best">
        <route edges="422298615#4 -497258109 496986969#0 496986969#1 496989355#0 496989355#1 499172074#5 196116976#3 196116976#5"/>
    </vehicle>
    <vehicle id="bus23" type="bus_bus" depart="191.72" departLane="best">
        <route edges="618990022#0 439933933 663543997 -196117083 -5672752#1 -5672752#0 -496986969#1 -496986969#0 497258108#0 308322447#3 308322447#4 5669664#0 5669664#1 5672951#0 5672951#1"/>
    </vehicle>
    <vehicle id="bus24" type="bus_bus" depart="200.06" departLane="best">
        <route edges="198924778#0 198924778#1 -5670874#2 -5670874#1 -5670874#0 -5670253#1 -5670253#0 420899372 496986970#0 496986970#1 5672752#0 5672752#1 196117083 505582406"/>
    </vehicle>
    <vehicle id="bus25" type="bus_bus" depart="208.40" departLane="best">
        <route edges="5670874#1 -5670874#1 -5670874#0 -5670253#1 -5670253#0 420899372 496986970#0 496986970#1 496989355#0 496989355#1 496989355#3"/>
    </vehicle>
    <vehicle id="bus26" type="bus_bus" depart="216.73" departLane="best">
        <route edges="569345537#0 569345537#3 569345537#4 541350711#0 541350711#1 497258108#0 497258108#1 5670253#0 5670253#1 5670874#0 5670874#1 5670874#2 5671574#0 5671574#1"/>
    </vehicle>
    <vehicle id="bus27" type="bus_bus" depart="225.07" departLane="best">
        <route edges="196117083 -196117083 -5672752#1 -5672752#0 -496986969#1 -496986969#0 497258108#0 308322447#3 308322447#4 5669664#0 5669664#1 5672951#0 5672951#1"/>
    </vehicle>
    <vehicle id="bus28" type="bus_bus" depart="233.40" departLane="best">
        <route edges="46525065#0 420890023 125480074 460065820 439801903 5670348#0"/>
    </vehicle>
    <vehicle id="bus29" type="bus_bus" depart="241.74" departLane="best">
        <route edges="-5670253#1 -5670253#0 420899372 496986970#0 496986970#1 5672752#0 5672752#1 196117083 196117092"/>
    </vehicle>
    <vehicle id="bus30" type="bus_bus" depart="250.08" departLane="best">
        <route edges="22898530#0 22898530#2 22898530#3 22898530#4 308322448#1 308322448#2 196116976#0 196116976#1 499172074#9 499172074#11"/>
    </vehicle>
    <vehicle id="bus31" type="bus_bus" depart="258.41" departLane="best">
        <route edges="569345537#0 569345537#3 569345537#4 541350711#0 541350711#1 497258108#0 497258108#1 5670253#0 5670253#1 5670874#0 5670874#1 5670874#2 -5670874#2"/>
    </vehicle>
    <vehicle id="bus32" type="bus_bus" depart="266.75" departLane="best">
        <route edges="196116975#0 196116975#4 460065822#0 22898530#0 22898530#2 22898530#3 22898530#4 308322448#1 308322448#2 196116976#0 618990022#5 618990022#6 618990022#7 618990022#8 618990022#9 618990022#10 618990022#11 618990022#12 195743336#1 195743336#2"/>
    </vehicle>
    <vehicle id="bus33" type="bus_bus" depart="275.08" departLane="best">
        <route edges="618990022#10 618990022#11 541350711#1 496986969#0 496986969#1 496989355#0 496989355#1 499172074#5 499172074#9 499172074#11"/>
    </vehicle>
    <vehicle id="bus34" type="bus_bus" depart="283.42" departLane="best">
        <route edges="5672290 5670873#0 5670873#1 -5670253#1 -5670253#0 420899372 496986970#0 496986970#1 496989355#0 496989355#1 496989355#3 382740985#0 46538371#0 196116976#6"/>
    </vehicle>
    <vehicle id="bus35" type="bus_bus" depart="291.75" departLane="best">
        <route edges="-5670139 -497258109 497258108#0 497258108#1 420899372 -195743152#0 439801903 460065821#1"/>
    </vehicle>
    <vehicle id="bus36" type="bus_bus" depart="300.09" departLane="best">
        <route edges="324118558 196116976#5 46538371#3"/>
    </vehicle>
    <vehicle id="bus37" type="bus_bus" depart="308.43" departLane="best">
        <route edges="308322448#1 308322448#2 196116976#0 196116976#1 196116976#3 324118554#1 382740985#0 382740985#3"/>
    </vehicle>
    <vehicle id="bus38" type="bus_bus" depart="316.76" departLane="best">
        <route edges="195743336#1 499172074#0 499172074#1 499172074#2 499172074#3 496989355#3 382740985#0 46538371#0 46538371#3"/>
    </vehicle>
    <vehicle id="bus39" type="bus_bus" depart="325.10" departLane="best">
        <route edges="324118558 324118554#1 226041032#0 226041032#3 226041032#4 569345537#4 541350711#0 541350711#1 497258108#0 308322447#3 308322447#4 5669664#0 5669664#1 5672951#0 5672951#1"/>
    </vehicle>
    <vehicle id="bus40" type="bus_bus" depart="333.43" departLane="best">
        <route edges="46525065#0 420890023 125480074 460065820 420899373 -196116988#0 5670253#0 5670253#1 -5670253#1"/>
    </vehicle>
    <vehicle id="bus41" type="bus_bus" depart="341.77" departLane="best">
        <route edges="663543997 -196117083 -5672752#1 -5672752#0 -496986969#1 -496986969#0 497258108#0 497258108#1 5670253#0 5670253#1 5670874#0 5670874#1 5670874#2 5671574#0 5671574#1"/>
    </vehicle>
    <vehicle id="bus43" type="bus_bus" depart="358.44" departLane="best">
        <route edges="308322448#1 308322448#2 -5672752#1 -5672752#0 -496986969#1 -496986969#0 497258108#0 497258108#1 5670253#0 5670253#1 5670874#0 5670874#1 -5670874#1"/>
    </vehicle>
    <vehicle id="bus44" type="bus_bus" depart="366.78" departLane="best">
        <route edges="196117083 -196117083 -5672752#1 -5672752#0 -496986969#1 -496986969#0 497258108#0 497258108#1 5670253#0 5670253#1 5670874#0"/>
    </vehicle>
    <vehicle id="bus45" type="bus_bus" depart="375.11" departLane="best">
        <route edges="46525065#0 420890023 125480074 460065820 420899373 -196116988#0 5670253#0"/>
    </vehicle>
    <vehicle id="bus46" type="bus_bus" depart="383.45" departLane="best">
        <route edges="618990022#6 496989355#1 499172074#5 499172074#9 499172074#11"/>
    </vehicle>
    <vehicle id="bus47" type="bus_bus" depart="391.78" departLane="best">
        <route edges="46525065#0 420890023 125480074 460065820 439801903 5670348#0 5670348#1"/>
    </vehicle>
    <vehicle id="bus48" type="bus_bus" depart="400.12" departLane="best">
        <route edges="-505582406 -196117083 196116976#0 196116976#1 499172074#9 499172074#11"/>
    </vehicle>
    <vehicle id="bus49" type="bus_bus" depart="408.46" departLane="best">
        <route edges="-5670139 195743336#0 195743336#1 499172074#0 499172074#1 499172074#2 499172074#3 496989355#3 382740985#0 46538371#0 196116976#6"/>
    </vehicle>
    <vehicle id="bus50" type="bus_bus" depart="416.79" departLane="best">
        <route edges="196116976#0 618990022#5 618990022#6 618990022#7 618990022#8 618990022#9 618990022#10 618990022#11 618990022#12 195743336#1 195743336#2"/>
    </vehicle>
    <vehicle id="bus51" type="bus_bus" depart="425.13" departLane="best">
        <route edges="324118554#1 226041032#0 226041032#3 226041032#4 569345537#4 499172074#1 499172074#2 499172074#3 499172074#5 499172074#9 499172074#11"/>
    </vehicle>
    <vehicle id="bus52" type="bus_bus" depart="433.46" departLane="best">
        <route edges="196116975#0 196116975#4 460065822#0 460065820 420899373 -196116988#0 5670253#0"/>
    </vehicle>
    <vehicle id="bus53" type="bus_bus" depart="441.80" departLane="best">
        <route edges="196116976#0 618990022#5 618990022#6 618990022#7 618990022#8 618990022#9 618990022#10 618990022#11 541350711#1 497258108#0 497258108#1 5670253#0 5670253#1 5670874#0 5670874#1 5670874#2 422298615#1"/>
    </vehicle>
    <vehicle id="bus54" type="bus_bus" depart="450.14" departLane="best">
        <route edges="198924778#1 -5670874#2 -5670874#1 -5670874#0 -5670253#1 -5670253#0 420899372 -195743152#0 439801903 5670348#0 5670348#1"/>
    </vehicle>
    <vehicle id="bus55" type="bus_bus" depart="458.47" departLane="best">
        <route edges="-505582406 -196117083 196116976#0 196116976#1 196116976#3 196116976#5 46538371#3"/>
    </vehicle>
    <vehicle id="bus56" type="bus_bus" depart="466.81" departLane="best">
        <route edges="569345537#0 569345537#3 569345537#4 541350711#0 541350711#1 497258108#0 308322447#3 308322447#4 5669664#0 5669664#1 5672951#0 5672951#1"/>
    </vehicle>
    <vehicle id="bus57" type="bus_bus" depart="475.14" departLane="best">
        <route edges="5672752#0 -5672752#0 -496986969#1 -496986969#0 497258109 5670139"/>
    </vehicle>
    <vehicle id="bus58" type="bus_bus" depart="483.48" departLane="best">
        <route edges="5669664#0 5669664#1 422298615#4 -497258109 496986969#0 496986969#1 496989355#0 496989355#1 496989355#3 382740985#0 46538371#0 196116976#6"/>
    </vehicle>
    <vehicle id="bus60" type="bus_bus" depart="500.15" departLane="best">
        <route edges="324118558 324118554#1 226041032#0 226041032#3 226041032#4 569345537#4 541350711#0 541350711#1 497258108#0 497258108#1 420899372 -196116988#0"/>
    </vehicle>
    <vehicle id="bus61" type="bus_bus" depart="508.49" departLane="best">
        <route edges="-505582406 196117092 308322446 308322447#1 308322447#2 308322447#3 308322447#4 5669664#0 5669664#1 5672951#0 5672951#1"/>
    </vehicle>
    <vehicle id="bus62" type="bus_bus" depart="516.82" departLane="best">
        <route edges="618990022#0 439933933 663543997 -196117083 -5672752#1 -5672752#0 -496986969#1 -496986969#0 497258108#0 497258108#1"/>
    </vehicle>
    <vehicle id="bus63" type="bus_bus" depart="525.16" departLane="best">
        <route edges="5672752#1 196116976#0 196116976#1 499172074#9 499172074#11"/>
    </vehicle>
    <vehicle id="bus64" type="bus_bus" depart="533.49" departLane="best">
        <route edges="-5672752#0 496989355#0 618990022#7 618990022#8 618990022#9 618990022#10 618990022#11 618990022#12 195743336#1 195743336#2"/>
    </vehicle>
    <vehicle id="bus65" type="bus_bus" depart="541.83" departLane="best">
        <route edges="618990022#0 618990022#3 196116976#1 196116976#3 196116976#5 196116976#6"/>
    </vehicle>
    <vehicle id="bus66" type="bus_bus" depart="550.17" departLane="best">
        <route edges="569345537#0 569345537#3 569345537#4 541350711#0 541350711#1 497258108#0 497258108#1 420899372 -195743152#0 439801903 91383966#1"/>
    </vehicle>
    <vehicle id="bus67" type="bus_bus" depart="558.50" departLane="best">
        <route edges="5672290 5670873#0 5670873#1 -5670253#1 -5670253#0 420899372 -195743152#0 439801903 460065821#1 460065822#0 22898530#0 22898530#2 22898530#3"/>
    </vehicle>
    <vehicle id="bus68" type="bus_bus" depart="566.84" departLane="best">
        <route edges="569345537#0 569345537#3 569345537#4 541350711#0 541350711#1 497258108#0 308322447#3 308322447#4 5669664#0 5669664#1 5672951#0 5672951#1"/>
    </vehicle>
    <vehicle id="bus69" type="bus_bus" depart="575.17" departLane="best">
        <route edges="196116975#0 196116975#4 460065822#0 460065820 420899373 -196116988#0 5670253#0 5670253#1 5670874#0 5670874#1 5670874#2 5671574#0 5671574#1"/>
    </vehicle>
    <vehicle id="bus71" type="bus_bus" depart="591.84" departLane="best">
        <route edges="-496986969#0 496986969#0 496986969#1 496989355#0 496989355#1 496989355#3 382740985#0 46538371#0 196116976#6"/>
    </vehicle>
    <vehicle id="bus72" type="bus_bus" depart="600.18" departLane="best">
        <route edges="226041032#3 226041032#4 569345537#4 541350711#0 541350711#1 497258108#0 308322447#3 308322447#4 5669664#0 5669664#1 5672951#0 5672951#1"/>
    </vehicle>
    <vehicle id="bus73" type="bus_bus" depart="608.52" departLane="best">
        <route edges="-5670139 -497258109 497258108#0 497258108#1 420899372 -195743152#0 439801903 460065821#1 460065822#0"/>
    </vehicle>
    <vehicle id="bus74" type="bus_bus" depart="616.85" departLane="best">
        <route edges="5669664#1 422298615#4 -497258109 496986969#0 496986969#1 5672752#0 5672752#1 196117083 196117092 308322446 308322448#1"/>
    </vehicle>
    <vehicle id="bus75" type="bus_bus" depart="625.19" departLane="best">
        <route edges="308322447#2 497258108#1 420899372 496986970#0 496986970#1 496989355#0 496989355#1 499172074#5 499172074#9 499172074#11"/>
    </vehicle>
    <vehicle id="bus76" type="bus_bus" depart="633.52" departLane="best">
        <route edges="196116976#3 324118554#1 226041032#0 226041032#3 226041032#4 569345537#4 541350711#0 541350711#1 497258109 5670139"/>
    </vehicle>
    <vehicle id="bus77" type="bus_bus" depart="641.86" departLane="best">
        <route edges="46525065#0 420890023 125480074 460065820 420899373 -196116988#0 5670253#0"/>
    </vehicle>
    <vehicle id="bus78" type="bus_bus" depart="650.20" departLane="best">
        <route edges="22898530#4 308322447#1 308322447#2 497258108#1 5670253#0 5670253#1 5670874#0 5670874#1 5670874#2 -5670874#2"/>
    </vehicle>
    <vehicle id="bus79" type="bus_bus" depart="658.53" departLane="best">
        <route edges="499172074#0 499172074#1 499172074#2 499172074#3 496989355#3 382740985#0"/>
    </vehicle>
    <vehicle id="bus80" type="bus_bus" depart="666.87" departLane="best">
        <route edges="198924778#1 -5670874#2 -5670874#1 -5670874#0 -5670253#1 -5670253#0 420899372 496986970#0 496986970#1 5672752#0 5672752#1"/>
    </vehicle>
    <vehicle id="bus81" type="bus_bus" depart="675.20" departLane="best">
        <route edges="198924778#0 198924778#1 -5670874#2 -5670874#1 -5670874#0 -5670253#1 -5670253#0 420899372 -195743152#0 439801903"/>
    </vehicle>
    <vehicle id="bus82" type="bus_bus" depart="683.54" departLane="best">
        <route edges="-5670874#0 -5670253#1 -5670253#0 420899372 -195743152#0 439801903 460065821#1 460065822#0 460065820"/>
    </vehicle>
    <vehicle id="bus83" type="bus_bus" depart="691.87" departLane="best">
        <route edges="618990022#0 618990022#3 618990022#5 618990022#6 496989355#1 499172074#5"/>
    </vehicle>
    <vehicle id="bus84" type="bus_bus" depart="700.21" departLane="best">
        <route edges="324118558 324118554#1 226041032#0 226041032#3 226041032#4 569345537#4 499172074#1 499172074#2 499172074#3 499172074#5 499172074#9 499172074#11"/>
    </vehicle>
    <vehicle id="bus85" type="bus_bus" depart="708.55" departLane="best">
        <route edges="497258108#1 420899372 496986970#0 496986970#1 496989355#0 496989355#1 496989355#3 382740985#0 46538371#0 46538371#3"/>
    </vehicle>
    <vehicle id="bus86" type="bus_bus" depart="716.88" departLane="best">
        <route edges="5672290 5670873#0 5670873#1 -5670253#1 -5670253#0 420899372 496986970#0 496986970#1 496989355#0 496989355#1 499172074#5 196116976#3"/>
    </vehicle>
    <vehicle id="bus87" type="bus_bus" depart="725.22" departLane="best">
        <route edges="-5670139 -497258109 497258108#0 497258108#1 420899372 496986970#0 496986970#1"/>
    </vehicle>
    <vehicle id="bus88" type="bus_bus" depart="733.55" departLane="best">
        <route edges="5672290 5670873#0 5670873#1 -5670253#1 -5670253#0 420899372 -195743152#0 439801903 5670348#0 5670348#1"/>
    </vehicle>
    <vehicle id="bus89" type="bus_bus" depart="741.89" departLane="best">
        <route edges="499172074#1 499172074#2 499172074#3 496989355#3 226041032#0 226041032#3 226041032#4 569345537#4 541350711#0 541350711#1 496986969#0 496986969#1 5672752#0 5672752#1 196117083 196117092"/>
    </vehicle>
    <vehicle id="bus90" type="bus_bus" depart="750.23" departLane="best">
        <route edges="196116975#0 196116975#4 460065822#0 22898530#0 22898530#2 22898530#3 22898530#4 308322448#1 308322448#2 -5672752#1 -5672752#0 -496986969#1 -496986969#0"/>
    </vehicle>
    <vehicle id="bus91" type="bus_bus" depart="758.56" departLane="best">
        <route edges="196116976#1 196116976#3 196116976#5 46538371#3"/>
    </vehicle>
    <vehicle id="bus92" type="bus_bus" depart="766.90" departLane="best">
        <route edges="196116975#0 196116975#4 460065822#0 22898530#0 22898530#2 22898530#3 22898530#4 308322448#1 308322448#2 -5672752#1 -5672752#0 -496986969#1 -496986969#0 497258109 5670139"/>
    </vehicle>
    <vehicle id="bus94" type="bus_bus" depart="783.57" departLane="best">
        <route edges="-5670139 -497258109 496986969#0 496986969#1 5672752#0 5672752#1 196117083 196117092 420890023 125480074 460065820"/>
    </vehicle>
    <vehicle id="bus95" type="bus_bus" depart="791.90" departLane="best">
        <route edges="460065820 420899373 -196116988#0 5670253#0 5670253#1 -5670253#1"/>
    </vehicle>
    <vehicle id="bus97" type="bus_bus" depart="808.58" departLane="best">
        <route edges="499172074#0 541350711#0 541350711#1 497258108#0 497258108#1 420899372 -195743152#0 439801903 91383966#1"/>
    </vehicle>
    <vehicle id="bus98" type="bus_bus" depart="816.91" departLane="best">
        <route edges="618990022#0 439933933 663543997 196117092 420890023 125480074 460065820 439801903 5670348#0 5670348#1"/>
    </vehicle>
    <vehicle id="bus99" type="bus_bus" depart="825.25" departLane="best">
        <route edges="-5670139 -497258109 496986969#0 496986969#1 5672752#0 5672752#1 196117083 196117092 308322446 308322447#1"/>
    </vehicle>
    <vehicle id="bus100" type="bus_bus" depart="833.58" departLane="best">
        <route edges="46525065#0 308322446 308322448#1 308322448#2 196116976#0 618990022#5 618990022#6 618990022#7 618990022#8 618990022#9 618990022#10 618990022#11 618990022#12 195743336#1 195743336#2"/>
    </vehicle>
    <vehicle id="bus101" type="bus_bus" depart="841.92" departLane="best">
        <route edges="196116975#4 460065822#0 22898530#0 22898530#2 22898530#3 22898530#4 308322448#1 308322448#2 -5672752#1 -5672752#0 -496986969#1 -496986969#0 497258109 5670139"/>
    </vehicle>
    <vehicle id="bus102" type="bus_bus" depart="850.26" departLane="best">
        <route edges="569345537#0 569345537#3 569345537#4 541350711#0 541350711#1 497258108#0 497258108#1 420899372 -195743152#0 439801903 5670348#0 5670348#1"/>
    </vehicle>
    <vehicle id="bus103" type="bus_bus" depart="858.59" departLane="best">
        <route edges="324118554#1 226041032#0 226041032#3 226041032#4 569345537#4 541350711#0 541350711#1 497258108#0 497258108#1 420899372 -195743152#0 439801903 5670348#0 5670348#1"/>
    </vehicle>
    <vehicle id="bus104" type="bus_bus" depart="866.93" departLane="best">
        <route edges="46525065#0 308322446 308322448#1 308322448#2 196116976#0 196116976#1 196116976#3 324118554#1 226041032#0 226041032#3 226041032#4 569345537#4 499172074#1 499172074#2"/>
    </vehicle>
    <vehicle id="bus105" type="bus_bus" depart="875.26" departLane="best">
        <route edges="420890023 125480074 22898530#0 22898530#2 22898530#3 22898530#4 308322448#1 308322448#2 196116976#0 618990022#5 618990022#6 618990022#7 618990022#8 618990022#9 618990022#10 618990022#11 618990022#12 195743336#1 195743336#2"/>
    </vehicle>
    <vehicle id="bus106" type="bus_bus" depart="883.60" departLane="best">
        <route edges="-5670874#1 -5670874#0 -5670253#1 -5670253#0 420899372 496986970#0 496986970#1 496989355#0 496989355#1 496989355#3 382740985#0 46538371#0 46538371#3"/>
    </vehicle>
    <vehicle id="bus107" type="bus_bus" depart="891.93" departLane="best">
        <route edges="196116975#0 196116975#4 460065822#0 22898530#0 22898530#2 22898530#3 22898530#4 308322448#1 308322448#2 196116976#0 196116976#1 196116976#3 324118554#1"/>
    </vehicle>
    <vehicle id="bus108" type="bus_bus" depart="900.27" departLane="best">
        <route edges="497258108#1 420899372 -195743152#0 439801903 5670348#0 5670348#1"/>
    </vehicle>
    <vehicle id="bus109" type="bus_bus" depart="908.61" departLane="best">
        <route edges="618990022#12 195743336#1 499172074#0 499172074#1 499172074#2 499172074#3 496989355#3 382740985#0 46538371#0 196116976#6"/>
    </vehicle>
    <vehicle id="bus110" type="bus_bus" depart="916.94" departLane="best">
        <route edges="46525065#0 308322446 308322448#1 308322448#2 196117083"/>
    </vehicle>
    <vehicle id="bus113" type="bus_bus" depart="941.95" departLane="best">
        <route edges="618990022#3 618990022#5 618990022#6 618990022#7 618990022#8 618990022#9 618990022#10 618990022#11 541350711#1 497258108#0 497258108#1 5670253#0 5670253#1 5670874#0 5670874#1 5670874#2 422298615#1"/>
    </vehicle>
    <vehicle id="bus114" type="bus_bus" depart="950.29" departLane="best">
        <route edges="-5670253#1 -5670253#0 420899372 -195743152#0 439801903 91383966#1"/>
    </vehicle>
    <vehicle id="bus115" type="bus_bus" depart="958.62" departLane="best">
        <route edges="5670874#2 422298615#1 422298615#4 -497258109 496986969#0 496986969#1 496989355#0 496989355#1 496989355#3 382740985#0 382740985#3"/>
    </vehicle>
    <vehicle id="bus116" type="bus_bus" depart="966.96" departLane="best">
        <route edges="439801903 460065821#1 460065822#0 22898530#0 22898530#2 22898530#3 22898530#4 308322448#1 308322448#2 196116976#0 196116976#1 196116976#3 324118554#1 382740985#0 382740985#3"/>
    </vehicle>
    <vehicle id="bus117" type="bus_bus" depart="975.29" departLane="best">
        <route edges="569345537#0 569345537#3 569345537#4 541350711#0 541350711#1 497258108#0 497258108#1 5670253#0 5670253#1 5670874#0 5670874#1 5670874#2 5671574#0 5671574#1"/>
    </vehicle>
    <vehicle id="bus118" type="bus_bus" depart="983.63" departLane="best">
        <route edges="-5670139 -497258109 496986969#0 496986969#1 496989355#0 618990022#7 618990022#8 618990022#9"/>
    </vehicle>
    <vehicle id="bus119" type="bus_bus" depart="991.96" departLane="best">
        <route edges="496989355#3 226041032#0 226041032#3 226041032#4 569345537#4 541350711#0 541350711#1 497258108#0 497258108#1 5670253#0 5670253#1 5670874#0 5670874#1 5670874#2 5671574#0 5671574#1"/>
    </vehicle>
    <vehicle id="bus120" type="bus_bus" depart="1000.30" departLane="best">
        <route edges="541350711#0 541350711#1 497258108#0 497258108#1 420899372 -195743152#0 439801903 460065821#1 460065822#0"/>
    </vehicle>
    <vehicle id="bus121" type="bus_bus" depart="1008.64" departLane="best">
        <route edges="196117092 308322446 308322447#1 308322447#2 497258108#1 5670253#0 5670253#1 5670874#0 5670874#1 5670874#2 5671574#0 5671574#1"/>
    </vehicle>
    <vehicle id="bus122" type="bus_bus" depart="1016.97" departLane="best">
        <route edges="46525065#0 420890023 125480074 460065820 420899373 -196116988#0 5670253#0 5670253#1 46583189#1"/>
    </vehicle>
    <vehicle id="bus123" type="bus_bus" depart="1025.31" departLane="best">
        <route edges="196117083 -196117083 -5672752#1 -5672752#0 -496986969#1 -496986969#0 497258108#0 308322447#3 308322447#4 5669664#0 5669664#1 5672951#0"/>
    </vehicle>
    <vehicle id="bus124" type="bus_bus" depart="1033.64" departLane="best">
        <route edges="196116975#0 196116975#4 460065822#0 460065820 420899373 -196116988#0 5670253#0 5670253#1 5670874#0 5670874#1 5670874#2"/>
    </vehicle>
    <vehicle id="bus125" type="bus_bus" depart="1041.98" departLane="best">
        <route edges="22898530#0 22898530#2 22898530#3 22898530#4 308322447#1 308322447#2 308322447#3 308322447#4 5669664#0 5669664#1 5672951#0 5672951#1"/>
    </vehicle>
    <vehicle id="bus127" type="bus_bus" depart="1058.65" departLane="best">
        <route edges="-5670139 -497258109 496986969#0 496986969#1 5672752#0 5672752#1 196117083 196117092"/>
    </vehicle>
    <vehicle id="bus128" type="bus_bus" depart="1066.99" departLane="best">
        <route edges="46583189#1 46583189#2 5669664#0 5669664#1 422298615#4 -497258109 496986969#0 496986969#1 496989355#0 496989355#1 496989355#3 382740985#0 46538371#0 46538371#3"/>
    </vehicle>
    <vehicle id="bus130" type="bus_bus" depart="1083.66" departLane="best">
        <route edges="196116976#3 324118554#1 226041032#0 226041032#3 226041032#4 569345537#4 541350711#0 618990022#12 195743336#1 195743336#2"/>
    </vehicle>
    <vehicle id="bus131" type="bus_bus" depart="1091.99" departLane="best">
        <route edges="195743336#0 195743336#1 499172074#0 541350711#0 541350711#1 496986969#0 496986969#1 5672752#0 5672752#1 196117083"/>
    </vehicle>
    <vehicle id="bus132" type="bus_bus" depart="1100.33" departLane="best">
        <route edges="198924778#0 198924778#1 -5670874#2 -5670874#1 -5670874#0 -5670253#1 -5670253#0 420899372 -195743152#0 186202420#0 186202420#1"/>
    </vehicle>
    <vehicle id="bus134" type="bus_bus" depart="1117.00" departLane="best">
        <route edges="195743336#0 195743336#1 499172074#0 541350711#0 541350711#1 496986969#0 496986969#1 5672752#0 5672752#1 196117083 -196117083"/>
    </vehicle>
    <vehicle id="bus136" type="bus_bus" depart="1133.67" departLane="best">