<?xml version="1.0" encoding="UTF-8"?>

<!-- generated on 03/18/19 00:26:05 by Eclipse SUMO duarouter Version 1.0.1
<configuration xmlns:xsi="http://www.w3.org/2001/XMLSchema-instance" xsi:noNamespaceSchemaLocation="http://sumo.dlr.de/xsd/duarouterConfiguration.xsd">

    <input>
        <net-file value="osm.net.xml"/>
        <route-files value="osm.passenger.trips.xml"/>
    </input>

    <output>
        <output-file value="osm.passenger.rou.xml"/>
        <alternatives-output value="osm.passenger.rou.alt.xml"/>
    </output>

    <time>
        <begin value="0"/>
        <end value="3600.0"/>
    </time>

    <report>
        <no-warnings value="true"/>
        <ignore-errors value="true"/>
        <no-step-log value="true"/>
    </report>

</configuration>
-->

<routes xmlns:xsi="http://www.w3.org/2001/XMLSchema-instance" xsi:noNamespaceSchemaLocation="http://sumo.dlr.de/xsd/routes_file.xsd">
    <vType id="veh_passenger" vClass="passenger"/>
    <vehicle id="veh0" type="veh_passenger" depart="0.00" departLane="best">
        <route edges="46538375#0 46538375#6 46538375#9 46538375#11 569345537#1 569345537#3 569345537#4 541350711#0 541350711#1 496986969#0 496986969#1 -496986969#1"/>
    </vehicle>
    <vehicle id="veh1" type="veh_passenger" depart="0.57" departLane="best">
        <route edges="198924778#1 198924778#2 -5670874#2 -5670874#1 -5670874#0 -5670253#1 -5670253#0 420899372 496986970#0 496986970#1 5672752#0 5672752#1 196117083 505582406#0 505582406#1 196117084#0"/>
    </vehicle>
    <vehicle id="veh2" type="veh_passenger" depart="1.14" departLane="best">
        <route edges="569345537#0 569345537#1 569345537#3 569345537#4 541350711#0 541350711#1 497258108#0 497258108#1 420899372 -195743152#0 186202420#0 186202420#1"/>
    </vehicle>
    <vehicle id="veh3" type="veh_passenger" depart="1.71" departLane="best">
        <route edges="420890024 324118558 324118554#1 226041032#0 226041032#3 226041032#4 569345537#4 541350711#0 541350711#1 497258109 -497258109"/>
    </vehicle>
    <vehicle id="veh4" type="veh_passenger" depart="2.28" departLane="best">
        <route edges="196116975#0 196116975#4 460065822#0 22898530#0 22898530#2 22898530#3 22898530#4 308322448#1 308322448#2 196116976#0 196116976#1 196116976#3 324118554#1 382740985#0 382740985#3 46538375#11"/>
    </vehicle>
    <vehicle id="veh5" type="veh_passenger" depart="2.85" departLane="best">
        <route edges="196116975#0 196116975#4 460065822#0 22898530#0 22898530#2 22898530#3 22898530#4 308322448#1 308322448#2 196116976#0 618990022#6 618990022#7 496989355#1 496989355#3"/>
    </vehicle>
    <vehicle id="veh7" type="veh_passenger" depart="4.00" departLane="best">
        <route edges="5670253#1 5670874#0 5670874#1 5670874#2 422298615#1 422298615#4 195743336#0 195743336#1 499172074#0 541350711#0"/>
    </vehicle>
    <vehicle id="veh8" type="veh_passenger" depart="4.57" departLane="best">
        <route edges="22898530#2 22898530#3 22898530#4 308322448#1 308322448#2 196116976#0 196116976#1 196116976#3 196116976#5"/>
    </vehicle>
    <vehicle id="veh9" type="veh_passenger" depart="5.14" departLane="best">
        <route edges="458180198#0 458180198#1 5672290#1 5670873#0 5670873#1 -5670253#1 -5670253#0 420899372 -195743152#0 439801903 91383966#1"/>
    </vehicle>
    <vehicle id="veh10" type="veh_passenger" depart="5.71" departLane="best">
        <route edges="308322448#1 308322448#2 -5672752#1 -5672752#0 -496986969#1 -496986969#0 497258108#0 497258108#1 5670253#0 5670253#1 46583189#1"/>
    </vehicle>
    <vehicle id="veh11" type="veh_passenger" depart="6.28" departLane="best">
        <route edges="5670874#1 -5670874#1 -5670874#0 -5670253#1 -5670253#0 420899372 496986970#0 496986970#1 496989355#0 496989355#1 499172074#5 499172074#9 499172074#11"/>
    </vehicle>
    <vehicle id="veh13" type="veh_passenger" depart="7.42" departLane="best">
        <route edges="496989355#3 226041032#0 226041032#3 226041032#4 569345537#4 541350711#0 541350711#1 497258108#0 497258108#1 5670253#0 5670253#1 -5670253#1"/>
    </vehicle>
    <vehicle id="veh14" type="veh_passenger" depart="7.99" departLane="best">
        <route edges="196116975#0 196116975#4 460065822#0 22898530#0 22898530#2 22898530#3 22898530#4 308322447#1"/>
    </vehicle>
    <vehicle id="veh15" type="veh_passenger" depart="8.56" departLane="best">
        <route edges="-5670139 -497258109 496986969#0 496986969#1 5672752#0 5672752#1 196117083 196117092 420890023 125480074 22898530#0 22898530#2 22898530#3 22898530#4"/>
    </vehicle>
    <vehicle id="veh16" type="veh_passenger" depart="9.14" departLane="best">
        <route edges="46538375#0 46538375#6 46538375#9 382740985#6"/>
    </vehicle>
    <vehicle id="veh17" type="veh_passenger" depart="9.71" departLane="best">
        <route edges="308322447#3 308322447#4 5669664#0 5669664#1 422298615#4 -497258109 496986969#0 496986969#1 5672752#0 5672752#1 196117083 505582406#0 505582406#1 196117084#0"/>
    </vehicle>
    <vehicle id="veh18" type="veh_passenger" depart="10.28" departLane="best">
        <route edges="46538375#6 46538375#9 46538375#11 569345537#1 569345537#3 569345537#4 541350711#0 618990022#13 195743336#1 499172074#0"/>
    </vehicle>
    <vehicle id="veh19" type="veh_passenger" depart="10.85" departLane="best">
        <route edges="195743342#0 198924778#0 198924778#1 198924778#2 422298615#1 422298615#4 5670139"/>
    </vehicle>
    <vehicle id="veh20" type="veh_passenger" depart="11.42" departLane="best">
        <route edges="195743336#1 499172074#0 499172074#1 499172074#2 499172074#3 496989355#3 382740985#0 46538371#0 46538371#3 420890028 420890024"/>
    </vehicle>
    <vehicle id="veh21" type="veh_passenger" depart="11.99" departLane="best">
        <route edges="618990022#8 618990022#9 618990022#10 618990022#11 618990022#12 541350711#1 496986969#0 496986969#1 496989355#0 496989355#1 499172074#5 499172074#9 499172074#11 499172074#12 499172074#13 499172074#14"/>
    </vehicle>
    <vehicle id="veh23" type="veh_passenger" depart="13.13" departLane="best">
        <route edges="226041033 324118556#1 420890025 420890029 439933933 663543997 196117092 420890023 125480074 22898530#0 22898530#2"/>
    </vehicle>
    <vehicle id="veh24" type="veh_passenger" depart="13.70" departLane="best">
        <route edges="196116975#0 196116975#4 460065822#0 22898530#0 22898530#2 22898530#3 22898530#4 308322448#1 308322448#2 196116976#0 196116976#1 499172074#9 499172074#11 420890029 618990022#4"/>
    </vehicle>
    <vehicle id="veh25" type="veh_passenger" depart="14.27" departLane="best">
        <route edges="569345537#0 569345537#1 569345537#3 569345537#4 499172074#1 499172074#2 499172074#3 499172074#5 499172074#9 499172074#11 420890029 439933933 663543997 196117092 308322446 308322448#1 308322448#2"/>
    </vehicle>
    <vehicle id="veh26" type="veh_passenger" depart="14.85" departLane="best">
        <route edges="46538375#9 46538375#11 569345537#1 569345537#3 569345537#4 499172074#1 499172074#2 499172074#3 499172074#5 499172074#9 499172074#11 420890029"/>
    </vehicle>
    <vehicle id="veh27" type="veh_passenger" depart="15.42" departLane="best">
        <route edges="618990022#0 618990022#3 618990022#4 196116976#1 196116976#3 324118554#1 382740985#0 46538371#0"/>
    </vehicle>
    <vehicle id="veh28" type="veh_passenger" depart="15.99" departLane="best">
        <route edges="196117092 308322446 308322448#1 308322448#2 196116976#0 196116976#1 196116976#3 324118554#1 226041032#0"/>
    </vehicle>
    <vehicle id="veh29" type="veh_passenger" depart="16.56" departLane="best">
        <route edges="46525065#0 308322446 308322447#1 308322447#2 308322447#3 308322447#4 5669664#0 5669664#1 5672951#0 5672951#1"/>
    </vehicle>
    <vehicle id="veh30" type="veh_passenger" depart="17.13" departLane="best">
        <route edges="324118558 196116976#5 46538371#3 420890028 420890024 420890025 420890029 439933933 663543997 505582406#0 505582406#1 196117084#0"/>
    </vehicle>
    <vehicle id="veh31" type="veh_passenger" depart="17.70" departLane="best">
        <route edges="663543997 -196117083 196116976#0 196116976#1 196116976#3 324118554#1 382740985#0 382740985#3 46538375#11 46538375#13"/>
    </vehicle>
    <vehicle id="veh32" type="veh_passenger" depart="18.27" departLane="best">
        <route edges="-5670253#1 -5670253#0 420899372 496986970#0 496986970#1 496989355#0 496989355#1 499172074#5 499172074#9 499172074#11 499172074#12"/>
    </vehicle>
    <vehicle id="veh33" type="veh_passenger" depart="18.84" departLane="best">
        <route edges="663543997 -196117083 196116976#0 196116976#1 196116976#3 324118554#1 382740985#0 382740985#3 46538375#11 46538375#13"/>
    </vehicle>
    <vehicle id="veh34" type="veh_passenger" depart="19.41" departLane="best">
        <route edges="-196117083 -5672752#1 -5672752#0 -496986969#1 -496986969#0 497258109 5670139"/>
    </vehicle>
    <vehicle id="veh35" type="veh_passenger" depart="19.98" departLane="best">
        <route edges="496986970#0 496986970#1 496989355#0 496989355#1 496989355#3 382740985#0 382740985#3 46538375#11 46538375#13"/>
    </vehicle>
    <vehicle id="veh36" type="veh_passenger" depart="20.56" departLane="best">
        <route edges="196117092 308322446 308322448#1 308322448#2 196116976#0 196116976#1 499172074#9 499172074#11 499172074#12 499172074#13 499172074#14"/>
    </vehicle>
    <vehicle id="veh37" type="veh_passenger" depart="21.13" departLane="best">
        <route edges="-5670253#1 -5670253#0 420899372 496986970#0 496986970#1 496989355#0 496989355#1 499172074#5 499172074#9 499172074#11 420890029 439933933"/>
    </vehicle>
    <vehicle id="veh38" type="veh_passenger" depart="21.70" departLane="best">
        <route edges="420890026 420890028 420890024 420890025 420890029 618990022#4 618990022#6 618990022#7"/>
    </vehicle>
    <vehicle id="veh39" type="veh_passenger" depart="22.27" departLane="best">
        <route edges="569345537#0 569345537#1 569345537#3 569345537#4 499172074#1 499172074#2 499172074#3 499172074#5 499172074#9 499172074#11 420890029 439933933 663543997 196117092 420890023 125480074 22898530#0"/>
    </vehicle>
    <vehicle id="veh40" type="veh_passenger" depart="22.84" departLane="best">
        <route edges="422298615#4 -497258109 496986969#0 496986969#1 496989355#0 496989355#1 496989355#3 382740985#0 46538371#0 196116976#6 196116976#7"/>
    </vehicle>
    <vehicle id="veh41" type="veh_passenger" depart="23.41" departLane="best">
        <route edges="618990022#0 618990022#3 439933933 663543997 -196117083 -5672752#1 -5672752#0 -496986969#1 -496986969#0 497258108#0 308322447#3 308322447#4 5669664#0 5669664#1 5672951#0 5672951#1"/>
    </vehicle>
    <vehicle id="veh42" type="veh_passenger" depart="23.98" departLane="best">
        <route edges="226041032#4 569345537#4 499172074#1 499172074#2 499172074#3 499172074#5 499172074#9 499172074#11 499172074#12 499172074#13 499172074#14"/>
    </vehicle>
    <vehicle id="veh43" type="veh_passenger" depart="24.55" departLane="best">
        <route edges="541350711#0 541350711#1 496986969#0 496986969#1 496989355#0 496989355#1 496989355#3 382740985#0 382740985#3 46538375#11 46538375#13"/>
    </vehicle>
    <vehicle id="veh45" type="veh_passenger" depart="25.69" departLane="best">
        <route edges="-196117084#1 -505582406#1 -505582406#0 -196117083 196116976#0 618990022#6 618990022#7 618990022#8 618990022#9 618990022#10 618990022#11 618990022#12"/>
    </vehicle>
    <vehicle id="veh46" type="veh_passenger" depart="26.26" departLane="best">
        <route edges="569345537#0 569345537#1 569345537#3 569345537#4 541350711#0 541350711#1 497258108#0 497258108#1 5670253#0 5670253#1 5670874#0 5670874#1 5670874#2 5671574#0 5671574#1"/>
    </vehicle>
    <vehicle id="veh47" type="veh_passenger" depart="26.84" departLane="best">
        <route edges="226041033 324118556#1 420890025 420890029 439933933 663543997 -196117083 -5672752#1 -5672752#0 -496986969#1 -496986969#0 497258108#0 497258108#1 5670253#0 5670253#1 5670874#0 5670874#1 -5670874#1"/>
    </vehicle>
    <vehicle id="veh48" type="veh_passenger" depart="27.41" departLane="best">
        <route edges="569345537#0 569345537#1 569345537#3 569345537#4 541350711#0 541350711#1 496986969#0 496986969#1 5672752#0 5672752#1 196116976#0 618990022#6"/>
    </vehicle>
    <vehicle id="veh49" type="veh_passenger" depart="27.98" departLane="best">
        <route edges="-5670139 195743336#0 195743336#1 499172074#0 499172074#1 499172074#2 499172074#3 496989355#3 382740985#0 46538371#0 46538371#3 46538371#4 46538371#5"/>
    </vehicle>
    <vehicle id="veh50" type="veh_passenger" depart="28.55" departLane="best">
        <route edges="-505582406#1 -505582406#0 196117092 420890023 125480074 460065820 439801903 5670348#0 5670348#1"/>
    </vehicle>
    <vehicle id="veh51" type="veh_passenger" depart="29.12" departLane="best">
        <route edges="499172074#9 499172074#11 420890029 618990022#4 618990022#6 618990022#7 618990022#8 618990022#9 618990022#10 618990022#11 618990022#12 618990022#13 195743336#1 195743336#2"/>
    </vehicle>
    <vehicle id="veh52" type="veh_passenger" depart="29.69" departLane="best">
        <route edges="196117092 308322446 308322447#1 308322447#2 308322447#3 308322447#4 5669664#0 5669664#1 5672951#0 5672951#1"/>
    </vehicle>
    <vehicle id="veh53" type="veh_passenger" depart="30.26" departLane="best">
        <route edges="420890024 420890025 420890029 439933933 663543997 505582406#0 505582406#1 196117084#0"/>
    </vehicle>
    <vehicle id="veh54" type="veh_passenger" depart="30.83" departLane="best">
        <route edges="196116975#0 196116975#4 460065822#0 22898530#0 22898530#2 22898530#3 22898530#4 308322448#1 308322448#2"/>
    </vehicle>
    <vehicle id="veh55" type="veh_passenger" depart="31.40" departLane="best">
        <route edges="663543997 -196117083 196116976#0 196116976#1 499172074#9 499172074#11 499172074#12 499172074#13 499172074#14"/>
    </vehicle>
    <vehicle id="veh56" type="veh_passenger" depart="31.97" departLane="best">
        <route edges="420890026 420890028 420890024 324118558 196116976#5 196116976#6 46538375#9 46538375#11 46538375#13"/>
    </vehicle>
    <vehicle id="veh57" type="veh_passenger" depart="32.55" departLane="best">
        <route edges="-5670874#1 -5670874#0 -5670253#1 -5670253#0 420899372 496986970#0 496986970#1 5672752#0 5672752#1 196117083 505582406#0 505582406#1 196117084#0"/>
    </vehicle>
    <vehicle id="veh58" type="veh_passenger" depart="33.12" departLane="best">
        <route edges="22898530#2 22898530#3 22898530#4 308322448#1 308322448#2 196116976#0 618990022#6 618990022#7 496989355#1 496989355#3"/>
    </vehicle>
    <vehicle id="veh59" type="veh_passenger" depart="33.69" departLane="best">
        <route edges="196116975#4 460065822#0 22898530#0 22898530#2 22898530#3 22898530#4 308322448#1 308322448#2 196117083 505582406#0 505582406#1 196117084#0"/>
    </vehicle>
    <vehicle id="veh60" type="veh_passenger" depart="34.26" departLane="best">
        <route edges="196116975#4 460065822#0 22898530#0 22898530#2 22898530#3 22898530#4 308322448#1 308322448#2 196116976#0 196116976#1 196116976#3 324118554#1 382740985#0 382740985#3 46538375#11 569345537#1 569345537#3"/>
    </vehicle>
    <vehicle id="veh61" type="veh_passenger" depart="34.83" departLane="best">
        <route edges="196116975#0 196116975#4"/>
    </vehicle>
    <vehicle id="veh62" type="veh_passenger" depart="35.40" departLane="best">
        <route edges="618990022#0 618990022#3 439933933 663543997 196117092 420890023 125480074 460065820 420899373 496986970#0"/>
    </vehicle>
    <vehicle id="veh63" type="veh_passenger" depart="35.97" departLane="best">
        <route edges="420899372 -195743152#0 439801903 5670348#0 5670348#1"/>
    </vehicle>
    <vehicle id="veh64" type="veh_passenger" depart="36.54" departLane="best">
        <route edges="5670253#1 -5670253#1 -5670253#0 420899372 496986970#0 496986970#1 496989355#0 496989355#1 496989355#3 382740985#0 46538371#0 196116976#6 196116976#7"/>
    </vehicle>
    <vehicle id="veh65" type="veh_passenger" depart="37.11" departLane="best">
        <route edges="-5670139 -497258109 497258108#0 497258108#1 420899372 -195743152#0 439801903"/>
    </vehicle>
    <vehicle id="veh66" type="veh_passenger" depart="37.68" departLane="best">
        <route edges="618990022#7 618990022#8 618990022#9 618990022#10 618990022#11 618990022#12 618990022#13 195743336#1"/>
    </vehicle>
    <vehicle id="veh67" type="veh_passenger" depart="38.26" departLane="best">
        <route edges="324118558 324118554#1 382740985#0 382740985#3"/>
    </vehicle>
    <vehicle id="veh69" type="veh_passenger" depart="39.40" departLane="best">
        <route edges="195743342#0 5672290#1 5670873#0 5670873#1 -5670253#1 -5670253#0 420899372 -195743152#0 439801903 460065821#1"/>
    </vehicle>
    <vehicle id="veh70" type="veh_passenger" depart="39.97" departLane="best">
        <route edges="420890024 420890025 420890029 439933933 663543997 196117092 420890023 125480074 22898530#0 22898530#2 22898530#3 22898530#4"/>
    </vehicle>
    <vehicle id="veh71" type="veh_passenger" depart="40.54" departLane="best">
        <route edges="420890026 420890028 420890024 420890025 420890029 439933933 663543997 -196117083 -5672752#1 5672752#1"/>
    </vehicle>
    <vehicle id="veh72" type="veh_passenger" depart="41.11" departLane="best">
        <route edges="460065820 420899373 -196116988#0 5670253#0 5670253#1 5670874#0 -5670874#0"/>
    </vehicle>
    <vehicle id="veh73" type="veh_passenger" depart="41.68" departLane="best">
        <route edges="663543997 -196117083 -5672752#1 -5672752#0 -496986969#1 -496986969#0 497258108#0 497258108#1 5670253#0 5670253#1 5670874#0 5670874#1 5670874#2 5671574#0 5671574#1"/>
    </vehicle>
    <vehicle id="veh74" type="veh_passenger" depart="42.25" departLane="best">
        <route edges="618990022#4 618990022#6 618990022#7 618990022#8 618990022#9 618990022#10 618990022#11 618990022#12"/>
    </vehicle>
    <vehicle id="veh75" type="veh_passenger" depart="42.82" departLane="best">
        <route edges="5672290#1 5670873#0 5670873#1 -5670253#1 -5670253#0 420899372 496986970#0 496986970#1 496989355#0 496989355#1 496989355#3 382740985#0 46538371#0 196116976#6 196116976#7"/>
    </vehicle>
    <vehicle id="veh76" type="veh_passenger" depart="43.39" departLane="best">
        <route edges="420905130#0 420905130#2 46538371#0 46538371#3 420890028 420890024 420890025 420890029 439933933 663543997 505582406#0 505582406#1 196117084#0"/>
    </vehicle>
    <vehicle id="veh77" type="veh_passenger" depart="43.97" departLane="best">
        <route edges="324118558 324118554#1 226041032#0 226041032#3 226041032#4 569345537#4 541350711#0 541350711#1 497258108#0 497258108#1 5670253#0 5670253#1 5670874#0 5670874#1 -5670874#1"/>
    </vehicle>
    <vehicle id="veh78" type="veh_passenger" depart="44.54" departLane="best">
        <route edges="196117092 420890023 125480074 460065820 439801903 5670348#0 5670348#1"/>
    </vehicle>
    <vehicle id="veh79" type="veh_passenger" depart="45.11" departLane="best">
        <route edges="420890026 420890028 420890024 324118558 324118554#1 226041032#0 226041032#3 226041032#4 569345537#4 541350711#0 541350711#1 497258108#0 308322447#3 308322447#4 5669664#0 5669664#1 422298615#4"/>
    </vehicle>
    <vehicle id="veh80" type="veh_passenger" depart="45.68" departLane="best">
        <route edges="618990022#12 541350711#1 497258108#0 497258108#1 420899372 -195743152#0 439801903 91383966#1"/>
    </vehicle>
    <vehicle id="veh81" type="veh_passenger" depart="46.25" departLane="best">
        <route edges="460065821#1 460065822#0 22898530#0 22898530#2 22898530#3 22898530#4 308322448#1 308322448#2 -5672752#1 -5672752#0 -496986969#1 -496986969#0 497258109 5670139"/>
    </vehicle>
    <vehicle id="veh82" type="veh_passenger" depart="46.82" departLane="best">
        <route edges="186202420#1 420899373 496986970#0 308322447#2 308322447#3"/>
    </vehicle>
    <vehicle id="veh83" type="veh_passenger" depart="47.39" departLane="best">
        <route edges="618990022#3 439933933 663543997 -196117083 -5672752#1 -5672752#0 496989355#0"/>
    </vehicle>
    <vehicle id="veh84" type="veh_passenger" depart="47.96" departLane="best">
        <route edges="-497258109 496986969#0 496986969#1 496989355#0 496989355#1"/>
    </vehicle>
    <vehicle id="veh86" type="veh_passenger" depart="49.10" departLane="best">
        <route edges="195743336#0 195743336#1 499172074#0 541350711#0 541350711#1 496986969#0 496986969#1 496989355#0 618990022#8 618990022#9"/>
    </vehicle>
    <vehicle id="veh87" type="veh_passenger" depart="49.68" departLane="best">
        <route edges="-5670139 195743336#0 195743336#1 499172074#0 499172074#1 499172074#2 499172074#3 496989355#3 382740985#0 46538371#0 196116976#6 196116976#7"/>
    </vehicle>
    <vehicle id="veh88" type="veh_passenger" depart="50.25" departLane="best">
        <route edges="46525065#0 308322446 308322448#1 308322448#2 196116976#0 618990022#6 618990022#7 496989355#1 499172074#5"/>
    </vehicle>
    <vehicle id="veh89" type="veh_passenger" depart="50.82" departLane="best">
        <route edges="196116976#0 618990022#6 618990022#7 618990022#8 618990022#9 618990022#10 618990022#11 618990022#12 618990022#13 195743336#1 195743336#2"/>
    </vehicle>
    <vehicle id="veh91" type="veh_passenger" depart="51.96" departLane="best">
        <route edges="46525065#0 308322446 308322448#1 308322448#2 196116976#0 196116976#1 499172074#9 499172074#11"/>
    </vehicle>
    <vehicle id="veh92" type="veh_passenger" depart="52.53" departLane="best">
        <route edges="420890023 125480074 22898530#0 22898530#2 22898530#3 22898530#4 308322448#1 308322448#2 196116976#0 618990022#6 618990022#7 496989355#1"/>
    </vehicle>
    <vehicle id="veh94" type="veh_passenger" depart="53.67" departLane="best">
        <route edges="196116975#0 196116975#4 460065822#0 22898530#0 22898530#2 22898530#3 22898530#4 308322448#1 308322448#2 -5672752#1 -5672752#0 -496986969#1 -496986969#0 497258109 5670139"/>
    </vehicle>
    <vehicle id="veh95" type="veh_passenger" depart="54.24" departLane="best">
        <route edges="226041033 324118556#1 420890025 420890029 439933933 663543997 -196117083 -5672752#1 -5672752#0 -496986969#1 -496986969#0 497258108#0 497258108#1 5670253#0 5670253#1"/>
    </vehicle>
    <vehicle id="veh96" type="veh_passenger" depart="54.81" departLane="best">
        <route edges="-5670139 195743336#0 195743336#1 499172074#0 499172074#1 499172074#2 499172074#3 496989355#3 382740985#0 46538371#0"/>
    </vehicle>
    <vehicle id="veh97" type="veh_passenger" depart="55.38" departLane="best">
        <route edges="-5670139 -497258109 496986969#0 496986969#1 5672752#0 5672752#1 196117083 505582406#0 505582406#1 196117084#0"/>
    </vehicle>
    <vehicle id="veh98" type="veh_passenger" depart="55.96" departLane="best">
        <route edges="196117092 308322446 308322448#1 308322448#2 196116976#0 618990022#6 618990022#7 618990022#8 618990022#9 618990022#10 618990022#11 618990022#12 618990022#13"/>
    </vehicle>
    <vehicle id="veh99" type="veh_passenger" depart="56.53" departLane="best">
        <route edges="569345537#0 569345537#1 569345537#3 569345537#4 541350711#0 541350711#1 497258108#0 308322447#3 308322447#4 5669664#0 5669664#1 5672951#0 5672951#1"/>
    </vehicle>
    <vehicle id="veh100" type="veh_passenger" depart="57.10" departLane="best">
        <route edges="308322447#3 308322447#4 5669664#0 5669664#1 422298615#4 -497258109 496986969#0 496986969#1 496989355#0 496989355#1 496989355#3 382740985#0 46538371#0 196116976#6"/>
    </vehicle>
    <vehicle id="veh101" type="veh_passenger" depart="57.67" departLane="best">
        <route edges="46538375#0 46538375#6 46538375#9 46538375#11 569345537#1 569345537#3 569345537#4 541350711#0 541350711#1 497258108#0 497258108#1 420899372 -195743152#0 439801903 91383966#1"/>
    </vehicle>
    <vehicle id="veh102" type="veh_passenger" depart="58.24" departLane="best">
        <route edges="46538375#9 46538375#11 569345537#1 569345537#3 569345537#4 541350711#0 541350711#1 497258108#0 497258108#1 420899372 -196116988#0"/>
    </vehicle>
    <vehicle id="veh104" type="veh_passenger" depart="59.38" departLane="best">
        <route edges="-5672752#0 496989355#0 618990022#8 618990022#9 618990022#10 618990022#11 618990022#12 618990022#13 195743336#1 195743336#2"/>
    </vehicle>
    <vehicle id="veh105" type="veh_passenger" depart="59.95" departLane="best">
        <route edges="497258109 -497258109 496986969#0 496986969#1 5672752#0 5672752#1 196117083 505582406#0 505582406#1 196117084#0"/>
    </vehicle>
    <vehicle id="veh106" type="veh_passenger" depart="60.52" departLane="best">
        <route edges="46538375#0 46538375#6 46538375#9 46538375#11 569345537#1 569345537#3 569345537#4 499172074#1 499172074#2 499172074#3 499172074#5 499172074#9 499172074#11 420890029 439933933 663543997 196117092 420890023 125480074 22898530#0"/>
    </vehicle>
    <vehicle id="veh107" type="veh_passenger" depart="61.09" departLane="best">
        <route edges="5672290#1 5670873#0 5670873#1 5670874#0 5670874#1 5670874#2 422298615#1 422298615#4 195743336#0"/>
    </vehicle>
    <vehicle id="veh108" type="veh_passenger" depart="61.67" departLane="best">
        <route edges="420890024 420890025 420890029 439933933 663543997 196117092 420890023 125480074 22898530#0 22898530#2 22898530#3 22898530#4"/>
    </vehicle>
    <vehicle id="veh109" type="veh_passenger" depart="62.24" departLane="best">
        <route edges="-195743152#0 439801903 5670348#0 5670348#1"/>
    </vehicle>
    <vehicle id="veh110" type="veh_passenger" depart="62.81" departLane="best">
        <route edges="46538375#0 46538375#6 46538375#9 46538375#11 569345537#1 569345537#3 569345537#4 499172074#1 499172074#2 499172074#3 499172074#5 499172074#9 499172074#11 420890029 439933933 663543997 196117092 420890023 125480074 22898530#0"/>
    </vehicle>
    <vehicle id="veh112" type="veh_passenger" depart="63.95" departLane="best">
        <route edges="420890025 420890029 439933933 663543997 196117092 420890023 125480074 460065820 420899373 -196116988#0"/>
    </vehicle>
    <vehicle id="veh113" type="veh_passenger" depart="64.52" departLane="best">
        <route edges="5670874#2 422298615#1 422298615#4 -497258109 496986969#0 496986969#1 496989355#0"/>
    </vehicle>
    <vehicle id="veh114" type="veh_passenger" depart="65.09" departLane="best">
        <route edges="186202420#0 186202420#1 420899373 496986970#0 496986970#1 496989355#0 618990022#8 618990022#9 618990022#10 618990022#11 618990022#12 618990022#13 195743336#1 195743336#2"/>
    </vehicle>
    <vehicle id="veh115" type="veh_passenger" depart="65.66" departLane="best">
        <route edges="226041033 324118556#1 420890025 420890029 439933933 663543997 -196117083 -5672752#1 -5672752#0 -496986969#1 -496986969#0 497258108#0 308322447#3 308322447#4 5669664#0 5669664#1 5672951#0 5672951#1"/>
    </vehicle>
    <vehicle id="veh116" type="veh_passenger" depart="66.23" departLane="best">
        <route edges="5669664#1 422298615#4 -497258109 496986969#0 496986969#1 5672752#0 5672752#1"/>
    </vehicle>
    <vehicle id="veh117" type="veh_passenger" depart="66.80" departLane="best">
        <route edges="569345537#1 569345537#3 569345537#4 499172074#1 499172074#2 499172074#3 499172074#5 499172074#9 499172074#11 420890029 439933933 663543997 505582406#0 505582406#1 196117084#0"/>
    </vehicle>
    <vehicle id="veh118" type="veh_passenger" depart="67.38" departLane="best">
        <route edges="196116976#5 196116976#6 46538375#9 46538375#11 569345537#1 569345537#3 569345537#4 541350711#0 618990022#13 195743336#1 195743336#2"/>
    </vehicle>
    <vehicle id="veh119" type="veh_passenger" depart="67.95" departLane="best">
        <route edges="541350711#0 541350711#1 497258108#0 308322447#3 308322447#4 5669664#0 5669664#1 5672951#0 5672951#1"/>
    </vehicle>
    <vehicle id="veh120" type="veh_passenger" depart="68.52" departLane="best">
        <route edges="186202420#1 420899373 496986970#0 496986970#1 496989355#0 618990022#8 618990022#9 618990022#10 618990022#11 618990022#12 618990022#13"/>
    </vehicle>
    <vehicle id="veh123" type="veh_passenger" depart="70.23" departLane="best">
        <route edges="-196117084#1 -505582406#1 -505582406#0 -196117083 -5672752#1 -5672752#0 -496986969#1 -496986969#0 497258109 5670139"/>
    </vehicle>
    <vehicle id="veh124" type="veh_passenger" depart="70.80" departLane="best">
        <route edges="22898530#0 22898530#2 22898530#3 22898530#4 308322448#1 308322448#2 196116976#0 618990022#6 618990022#7 618990022#8 618990022#9 618990022#10 618990022#11 618990022#12 618990022#13"/>
    </vehicle>
    <vehicle id="veh125" type="veh_passenger" depart="71.37" departLane="best">
        <route edges="5670253#0 -5670253#0 420899372 496986970#0 496986970#1 5672752#0 5672752#1"/>
    </vehicle>
    <vehicle id="veh126" type="veh_passenger" depart="71.94" departLane="best">
        <route edges="541350711#1 497258109 195743336#0 195743336#1 195743336#2"/>
    </vehicle>
    <vehicle id="veh127" type="veh_passenger" depart="72.51" departLane="best">
        <route edges="569345537#0 569345537#1 569345537#3 569345537#4 541350711#0 541350711#1 496986969#0 496986969#1 5672752#0"/>
    </vehicle>
    <vehicle id="veh128" type="veh_passenger" depart="73.09" departLane="best">
        <route edges="196116975#0 196116975#4 460065822#0 460065820 420899373 -196116988#0 5670253#0 5670253#1 5670874#0 5670874#1 5670874#2 5671574#0"/>
    </vehicle>
    <vehicle id="veh129" type="veh_passenger" depart="73.66" departLane="best">
        <route edges="420890026 420890028 420890024 324118558 324118554#1 226041032#0 226041032#3 226041032#4 569345537#4 541350711#0 541350711#1 497258108#0 308322447#3 308322447#4"/>
    </vehicle>