<?xml version="1.0" encoding="UTF-8"?>

<!-- generated on 03/18/19 00:26:07 by Eclipse SUMO duarouter Version 1.0.1
<configuration xmlns:xsi="http://www.w3.org/2001/XMLSchema-instance" xsi:noNamespaceSchemaLocation="http://sumo.dlr.de/xsd/duarouterConfiguration.xsd">

    <input>
        <net-file value="osm.net.xml"/>
        <route-files value="osm.bus.trips.xml"/>
    </input>

    <output>
        <output-file value="osm.bus.rou.xml"/>
        <alternatives-output value="osm.bus.rou.alt.xml"/>
    </output>

    <time>
        <begin value="0"/>
        <end value="3600.0"/>
    </time>

    <report>
        <no-warnings value="true"/>
        <ignore-errors value="true"/>
        <no-step-log value="true"/>
    </report>

</configuration>
-->

<routes xmlns:xsi="http://www.w3.org/2001/XMLSchema-instance" xsi:noNamespaceSchemaLocation="http://sumo.dlr.de/xsd/routes_file.xsd">
    <vType id="bus_bus" vClass="bus"/>
    <vehicle id="bus0" type="bus_bus" depart="0.00" departLane="best">
        <route edges="198924778#2 -5670874#2 -5670874#1 -5670874#0 -5670253#1 -5670253#0 420899372 496986970#0 496986970#1 5672752#0 5672752#1 196117083 505582406#0 505582406#1 196117084#0"/>
    </vehicle>
    <vehicle id="bus1" type="bus_bus" depart="6.85" departLane="best">
        <route edges="569345537#0 569345537#1 569345537#3 569345537#4 541350711#0 541350711#1 497258108#0 497258108#1 420899372 -195743152#0 186202420#0"/>
    </vehicle>
    <vehicle id="bus2" type="bus_bus" depart="13.70" departLane="best">
        <route edges="420890024 420890025 420890029 439933933 663543997 -196117083 -5672752#1 -5672752#0 -496986969#1 -496986969#0 497258109 -497258109"/>
    </vehicle>
    <vehicle id="bus3" type="bus_bus" depart="20.56" departLane="best">
        <route edges="196116975#0 196116975#4 460065822#0 22898530#0 22898530#2 22898530#3 22898530#4 308322448#1 308322448#2 196116976#0 196116976#1 196116976#3 196116976#5 46538371#3 46538371#4 46538371#5"/>
    </vehicle>
    <vehicle id="bus5" type="bus_bus" depart="34.26" departLane="best">
        <route edges="5670253#1 -5670253#1 -5670253#0 420899372 496986970#0 496986970#1 5672752#0 5672752#1 196117083 505582406#0 505582406#1"/>
    </vehicle>
    <vehicle id="bus6" type="bus_bus" depart="41.11" departLane="best">
        <route edges="458180198#0 458180198#1 5672290#1 5670873#0 5670873#1 -5670253#1 -5670253#0 420899372 496986970#0 496986970#1 496989355#0 496989355#1 499172074#5 499172074#9 499172074#11 420890029 439933933 663543997"/>
    </vehicle>
    <vehicle id="bus7" type="bus_bus" depart="47.96" departLane="best">
        <route edges="308322448#1 308322448#2 -5672752#1 -5672752#0 -496986969#1 -496986969#0 497258108#0 497258108#1 5670253#0 5670253#1 46583189#1"/>
    </vehicle>
    <vehicle id="bus8" type="bus_bus" depart="54.81" departLane="best">
        <route edges="-5670253#0 420899372 -195743152#0 439801903 460065821#1 460065822#0 22898530#0 22898530#2 22898530#3"/>
    </vehicle>
    <vehicle id="bus9" type="bus_bus" depart="61.67" departLane="best">
        <route edges="308322447#4 5669664#0 5669664#1 422298615#4 -497258109 496986969#0 496986969#1 5672752#0 5672752#1 196117083 505582406#0 505582406#1 196117084#0"/>
    </vehicle>
    <vehicle id="bus11" type="bus_bus" depart="75.37" departLane="best">
        <route edges="46538375#9 46538375#11 569345537#1 569345537#3 569345537#4 541350711#0 541350711#1 497258108#0 497258108#1"/>
    </vehicle>
    <vehicle id="bus12" type="bus_bus" depart="82.22" departLane="best">
        <route edges="195743342#0 198924778#0 198924778#1 198924778#2 422298615#1 422298615#4 5670139"/>
    </vehicle>
    <vehicle id="bus13" type="bus_bus" depart="89.07" departLane="best">
        <route edges="195743336#1 499172074#0 499172074#1 499172074#2 499172074#3 499172074#5 499172074#9 499172074#11 420890029 439933933 663543997 196117092 420890023"/>
    </vehicle>
    <vehicle id="bus15" type="bus_bus" depart="102.78" departLane="best">
        <route edges="196116975#0 196116975#4 460065822#0 22898530#0 22898530#2 22898530#3 22898530#4 308322448#1 308322448#2 196116976#0 196116976#1 499172074#9 499172074#11 420890029 618990022#4"/>
    </vehicle>
    <vehicle id="bus16" type="bus_bus" depart="109.63" departLane="best">
        <route edges="569345537#0 569345537#1 569345537#3 569345537#4 499172074#1 499172074#2 499172074#3 499172074#5 499172074#9 499172074#11 420890029 439933933 663543997 196117092 308322446 308322448#1"/>
    </vehicle>
    <vehicle id="bus17" type="bus_bus" depart="116.48" departLane="best">
        <route edges="46583189#2 5669664#0 5669664#1 422298615#4 -497258109 496986969#0 496986969#1 496989355#0 496989355#1 496989355#3 382740985#0 46538371#0 46538371#3 420890028"/>
    </vehicle>
    <vehicle id="bus18" type="bus_bus" depart="123.33" departLane="best">
        <route edges="618990022#0 618990022#3 439933933 663543997 196117092 420890023 125480074 460065820 439801903 460065821#1"/>
    </vehicle>
    <vehicle id="bus19" type="bus_bus" depart="130.18" departLane="best">
        <route edges="198924778#0 198924778#1 198924778#2 -5670874#2 -5670874#1 -5670874#0 -5670253#1 -5670253#0 420899372 496986970#0 496986970#1 496989355#0 496989355#1 496989355#3 226041032#0"/>
    </vehicle>
    <vehicle id="bus20" type="bus_bus" depart="137.03" departLane="best">
        <route edges="46525065#0 420890023 125480074 22898530#0"/>
    </vehicle>
    <vehicle id="bus21" type="bus_bus" depart="143.89" departLane="best">
        <route edges="46525065#0 308322446 308322447#1 308322447#2 308322447#3 308322447#4 5669664#0 5669664#1 5672951#0 5672951#1"/>
    </vehicle>
    <vehicle id="bus22" type="bus_bus" depart="150.74" departLane="best">
        <route edges="324118558 196116976#5 46538371#3 420890028 420890024 420890025 420890029 439933933 663543997 505582406#0 505582406#1 196117084#0"/>
    </vehicle>
    <vehicle id="bus23" type="bus_bus" depart="157.59" departLane="best">
        <route edges="663543997 -196117083 196116976#0 196116976#1 196116976#3 324118554#1 382740985#0 382740985#3 46538375#11"/>
    </vehicle>
    <vehicle id="bus24" type="bus_bus" depart="164.44" departLane="best">
        <route edges="-5670253#1 -5670253#0 420899372 496986970#0 496986970#1 496989355#0 496989355#1 499172074#5 499172074#9 499172074#11"/>
    </vehicle>
    <vehicle id="bus25" type="bus_bus" depart="171.29" departLane="best">
        <route edges="5669664#1 422298615#4 -497258109 496986969#0 496986969#1 496989355#0 496989355#1 496989355#3 382740985#0 382740985#3 46538375#11 569345537#1 420905130#0 420905130#2"/>
    </vehicle>
    <vehicle id="bus26" type="bus_bus" depart="178.14" departLane="best">
        <route edges="663543997 -196117083 196116976#0 196116976#1 196116976#3 324118554#1 382740985#0 382740985#3 46538375#11 46538375#13"/>
    </vehicle>
    <vehicle id="bus27" type="bus_bus" depart="185.00" departLane="best">
        <route edges="-196117083 -5672752#1 -5672752#0 -496986969#1 -496986969#0 497258108#0 308322447#3 308322447#4 5669664#0 5669664#1"/>
    </vehicle>
    <vehicle id="bus28" type="bus_bus" depart="191.85" departLane="best">
        <route edges="496989355#0 496989355#1 496989355#3 382740985#0 382740985#3 46538375#11 46538375#13"/>
    </vehicle>
    <vehicle id="bus29" type="bus_bus" depart="198.70" departLane="best">
        <route edges="198924778#0 198924778#1 198924778#2 -5670874#2 -5670874#1 -5670874#0 -5670253#1 -5670253#0 420899372 496986970#0 496986970#1 496989355#0 496989355#1 499172074#5 499172074#9 499172074#11 499172074#12 499172074#13"/>
    </vehicle>
    <vehicle id="bus30" type="bus_bus" depart="205.55" departLane="best">
        <route edges="-5670874#0 -5670253#1 -5670253#0 420899372 -195743152#0 439801903"/>
    </vehicle>
    <vehicle id="bus31" type="bus_bus" depart="212.40" departLane="best">
        <route edges="569345537#0 569345537#1 569345537#3 569345537#4 499172074#1 499172074#2 499172074#3 499172074#5 499172074#9 499172074#11 420890029 439933933 663543997 196117092 420890023 125480074 22898530#0"/>
    </vehicle>
    <vehicle id="bus32" type="bus_bus" depart="219.26" departLane="best">
        <route edges="439801903 460065821#1 460065822#0 22898530#0 22898530#2 22898530#3 22898530#4 308322448#1 308322448#2 196116976#0 196116976#1 196116976#3 196116976#5 196116976#6 196116976#7"/>
    </vehicle>
    <vehicle id="bus33" type="bus_bus" depart="226.11" departLane="best">
        <route edges="618990022#0 618990022#3 439933933 663543997 -196117083 -5672752#1 -5672752#0 -496986969#1 -496986969#0 497258108#0 308322447#3 308322447#4 5669664#0 5669664#1 5672951#0"/>
    </vehicle>
    <vehicle id="bus34" type="bus_bus" depart="232.96" departLane="best">
        <route edges="46538375#0 46538375#6 46538375#9 46538375#11 569345537#1 569345537#3 569345537#4 499172074#1 499172074#2 499172074#3 499172074#5 196116976#3"/>
    </vehicle>
    <vehicle id="bus35" type="bus_bus" depart="239.81" departLane="best">
        <route edges="499172074#9 499172074#11 420890029 618990022#4 196116976#1 196116976#3 324118554#1 382740985#0 382740985#3 46538375#11 46538375#13"/>
    </vehicle>
    <vehicle id="bus36" type="bus_bus" depart="246.66" departLane="best">
        <route edges="-196117084#1 -505582406#1 -505582406#0 -196117083 196116976#0 618990022#6 618990022#7 618990022#8 618990022#9 618990022#10 618990022#11 618990022#12"/>
    </vehicle>
    <vehicle id="bus37" type="bus_bus" depart="253.51" departLane="best">
        <route edges="569345537#0 569345537#1 569345537#3 569345537#4 541350711#0 541350711#1 497258108#0 497258108#1 5670253#0 5670253#1 5670874#0 5670874#1 5670874#2 5671574#0 5671574#1"/>
    </vehicle>
    <vehicle id="bus38" type="bus_bus" depart="260.37" departLane="best">
        <route edges="226041033 324118556#1 420890025 420890029 439933933 663543997 -196117083 -5672752#1 -5672752#0 -496986969#1 -496986969#0 497258108#0 497258108#1 5670253#0 5670253#1 5670874#0 -5670874#0"/>
    </vehicle>
    <vehicle id="bus39" type="bus_bus" depart="267.22" departLane="best">
        <route edges="-5670139 195743336#0 195743336#1 499172074#0 499172074#1 499172074#2 499172074#3 496989355#3 382740985#0 46538371#0 46538371#3 46538371#4 46538371#5"/>
    </vehicle>
    <vehicle id="bus40" type="bus_bus" depart="274.07" departLane="best">
        <route edges="505582406#0 -505582406#0 -196117083 196116976#0 618990022#6 618990022#7 618990022#8 618990022#9 618990022#10 618990022#11 618990022#12 618990022#13 195743336#1 195743336#2"/>
    </vehicle>
    <vehicle id="bus41" type="bus_bus" depart="280.92" departLane="best">
        <route edges="420899373 496986970#0 496986970#1 496989355#0 496989355#1 496989355#3 382740985#0 46538371#0 196116976#6 46538375#9"/>
    </vehicle>
    <vehicle id="bus42" type="bus_bus" depart="287.77" departLane="best">
        <route edges="420890025 420890029 439933933 663543997 505582406#0 505582406#1 196117084#0"/>
    </vehicle>
    <vehicle id="bus43" type="bus_bus" depart="294.62" departLane="best">
        <route edges="663543997 -196117083 196116976#0 196116976#1 499172074#9 499172074#11 499172074#12 499172074#13 499172074#14"/>
    </vehicle>
    <vehicle id="bus44" type="bus_bus" depart="301.48" departLane="best">
        <route edges="420890026 420890028 420890024 324118558 196116976#5 196116976#6 46538375#9 46538375#11 46538375#13"/>
    </vehicle>
    <vehicle id="bus45" type="bus_bus" depart="308.33" departLane="best">
        <route edges="-5670874#2 -5670874#1 -5670874#0 -5670253#1 -5670253#0 420899372 496986970#0 496986970#1 5672752#0 5672752#1 196117083 196117092"/>
    </vehicle>
    <vehicle id="bus46" type="bus_bus" depart="315.18" departLane="best">
        <route edges="196116976#0 196116976#1 499172074#9 499172074#11 420890029 439933933 663543997 505582406#0 505582406#1 196117084#0"/>
    </vehicle>
    <vehicle id="bus47" type="bus_bus" depart="322.03" departLane="best">
        <route edges="196116975#0 196116975#4 460065822#0 22898530#0 22898530#2 22898530#3 22898530#4 308322448#1 308322448#2 196116976#0 618990022#6 618990022#7 618990022#8 618990022#9 618990022#10 618990022#11 618990022#12 618990022#13 195743336#1 195743336#2"/>
    </vehicle>
    <vehicle id="bus48" type="bus_bus" depart="328.88" departLane="best">
        <route edges="618990022#0 618990022#3 439933933 663543997 -196117083 -5672752#1 -5672752#0 -496986969#1 496986969#1"/>
    </vehicle>
    <vehicle id="bus49" type="bus_bus" depart="335.73" departLane="best">
        <route edges="5670253#1 -5670253#1 -5670253#0 420899372 496986970#0 496986970#1 496989355#0 496989355#1 496989355#3 382740985#0 46538371#0 196116976#6 196116976#7"/>
    </vehicle>
    <vehicle id="bus50" type="bus_bus" depart="342.59" departLane="best">
        <route edges="460065821#1 460065822#0 460065820 420899373 -196116988#0 5670253#0 5670253#1 -5670253#1"/>
    </vehicle>
    <vehicle id="bus51" type="bus_bus" depart="349.44" departLane="best">
        <route edges="663543997 -196117083 -5672752#1 -5672752#0 -496986969#1 -496986969#0 497258108#0 497258108#1 5670253#0 5670253#1 5670874#0 5670874#1 5670874#2 5671574#0 5671574#1"/>
    </vehicle>
    <vehicle id="bus52" type="bus_bus" depart="356.29" departLane="best">
        <route edges="5672290#1 5670873#0 5670873#1 -5670253#1 -5670253#0 420899372 496986970#0 496986970#1 496989355#0 496989355#1 496989355#3 382740985#0 46538371#0 196116976#6 196116976#7"/>
    </vehicle>
    <vehicle id="bus53" type="bus_bus" depart="363.14" departLane="best">
        <route edges="420905130#2 46538371#0 46538371#3 420890028 420890024 420890025 420890029 439933933 663543997 505582406#0 505582406#1 196117084#0"/>
    </vehicle>
    <vehicle id="bus54" type="bus_bus" depart="369.99" departLane="best">
        <route edges="324118558 324118554#1 226041032#0 226041032#3 226041032#4 569345537#4 541350711#0 541350711#1 497258108#0 497258108#1 5670253#0 5670253#1 5670874#0 -5670874#0"/>
    </vehicle>
    <vehicle id="bus55" type="bus_bus" depart="376.84" departLane="best">
        <route edges="198924778#0 198924778#1 198924778#2 -5670874#2 -5670874#1 -5670874#0 -5670253#1 -5670253#0 420899372 -195743152#0 439801903 5670348#0 5670348#1"/>
    </vehicle>
    <vehicle id="bus56" type="bus_bus" depart="383.70" departLane="best">
        <route edges="420890026 420890028 420890024 420890025 420890029 439933933 663543997 -196117083 -5672752#1 -5672752#0 -496986969#1 -496986969#0 497258108#0 497258108#1 5670253#0 5670253#1 5670874#0 5670874#1 5670874#2 422298615#1"/>
    </vehicle>
    <vehicle id="bus57" type="bus_bus" depart="390.55" departLane="best">
        <route edges="618990022#13 195743336#1 499172074#0 541350711#0 541350711#1 497258108#0 497258108#1 420899372 -195743152#0 439801903 91383966#1"/>
    </vehicle>
    <vehicle id="bus58" type="bus_bus" depart="397.40" departLane="best">
        <route edges="460065822#0 22898530#0 22898530#2 22898530#3 22898530#4 308322447#1 308322447#2 308322447#3 308322447#4 5669664#0 5669664#1"/>
    </vehicle>
    <vehicle id="bus60" type="bus_bus" depart="411.10" departLane="best">
        <route edges="-5670139 195743336#0 195743336#1 499172074#0 499172074#1 499172074#2 499172074#3 496989355#3 382740985#0 46538371#0 196116976#6 196116976#7"/>
    </vehicle>
    <vehicle id="bus61" type="bus_bus" depart="417.96" departLane="best">
        <route edges="196116976#1 196116976#3 324118554#1 226041032#0 226041032#3 226041032#4 569345537#4 541350711#0 618990022#13 195743336#1 195743336#2"/>
    </vehicle>
    <vehicle id="bus62" type="bus_bus" depart="424.81" departLane="best">
        <route edges="196116975#0 196116975#4 460065822#0 22898530#0 22898530#2 22898530#3 22898530#4 308322447#1 308322447#2 308322447#3 308322447#4 5669664#0"/>
    </vehicle>
    <vehicle id="bus63" type="bus_bus" depart="431.66" departLane="best">
        <route edges="226041033 324118556#1 420890025 420890029 439933933 663543997 -196117083 -5672752#1 -5672752#0 -496986969#1 -496986969#0 497258108#0 497258108#1 5670253#0"/>
    </vehicle>
    <vehicle id="bus64" type="bus_bus" depart="438.51" departLane="best">
        <route edges="-5670139 -497258109 497258108#0 497258108#1 420899372 -195743152#0 439801903 460065821#1"/>
    </vehicle>
    <vehicle id="bus65" type="bus_bus" depart="445.36" departLane="best">
        <route edges="-5670139 -497258109 496986969#0 496986969#1 5672752#0 5672752#1 196117083 505582406#0 505582406#1 196117084#0"/>
    </vehicle>
    <vehicle id="bus66" type="bus_bus" depart="452.21" departLane="best">
        <route edges="569345537#0 569345537#1 569345537#3 569345537#4 541350711#0 541350711#1 497258108#0 308322447#3 308322447#4 5669664#0 5669664#1 5672951#0 5672951#1"/>
    </vehicle>
    <vehicle id="bus67" type="bus_bus" depart="459.07" departLane="best">
        <route edges="308322447#4 5669664#0 5669664#1 422298615#4 -497258109 496986969#0 496986969#1 496989355#0 496989355#1 499172074#5 196116976#3 196116976#5"/>
    </vehicle>
    <vehicle id="bus68" type="bus_bus" depart="465.92" departLane="best">
        <route edges="46538375#0 46538375#6 46538375#9 46538375#11 569345537#1 569345537#3 569345537#4 541350711#0 541350711#1 497258108#0 497258108#1 420899372 -195743152#0 439801903 91383966#1"/>
    </vehicle>
    <vehicle id="bus69" type="bus_bus" depart="472.77" departLane="best">
        <route edges="-5672752#1 -5672752#0 496989355#0 618990022#8 618990022#9 618990022#10 618990022#11 618990022#12 618990022#13 195743336#1 195743336#2"/>
    </vehicle>
    <vehicle id="bus70" type="bus_bus" depart="479.62" departLane="best">
        <route edges="499172074#0 499172074#1 499172074#2 499172074#3 499172074#5 499172074#9 499172074#11 420890029 439933933 663543997 505582406#0 505582406#1 196117084#0"/>
    </vehicle>
    <vehicle id="bus73" type="bus_bus" depart="500.18" departLane="best">
        <route edges="420890025 420890029 439933933 663543997 196117092 420890023 125480074 460065820 420899373 -196116988#0"/>
    </vehicle>
    <vehicle id="bus74" type="bus_bus" depart="507.03" departLane="best">
        <route edges="186202420#0 186202420#1 420899373 496986970#0 496986970#1 496989355#0 618990022#8 618990022#9 618990022#10 618990022#11 618990022#12 618990022#13 195743336#1 195743336#2"/>
    </vehicle>
    <vehicle id="bus75" type="bus_bus" depart="513.88" departLane="best">
        <route edges="226041033 324118556#1 324118558 196116976#5 196116976#6 46538375#9 46538375#11 569345537#1"/>
    </vehicle>
    <vehicle id="bus76" type="bus_bus" depart="520.73" departLane="best">
        <route edges="5669664#1 422298615#4 -497258109 496986969#0 496986969#1 5672752#0"/>
    </vehicle>
    <vehicle id="bus77" type="bus_bus" depart="527.58" departLane="best">
        <route edges="569345537#1 569345537#3 569345537#4 499172074#1 499172074#2 499172074#3 499172074#5 499172074#9 499172074#11 420890029 439933933 663543997 505582406#0 505582406#1 196117084#0"/>
    </vehicle>
    <vehicle id="bus78" type="bus_bus" depart="534.43" departLane="best">
        <route edges="196116976#6 46538375#9 46538375#11 569345537#1 569345537#3 569345537#4 541350711#0 618990022#13 195743336#1"/>
    </vehicle>
    <vehicle id="bus79" type="bus_bus" depart="541.29" departLane="best">
        <route edges="541350711#0 541350711#1 497258108#0 308322447#3 308322447#4 5669664#0 5669664#1 5672951#0 5672951#1"/>
    </vehicle>
    <vehicle id="bus82" type="bus_bus" depart="561.84" departLane="best">
        <route edges="-196117084#1 -505582406#1 -505582406#0 -196117083 -5672752#1 -5672752#0 -496986969#1 -496986969#0 497258109 5670139"/>
    </vehicle>
    <vehicle id="bus83" type="bus_bus" depart="568.69" departLane="best">
        <route edges="22898530#2 22898530#3 22898530#4 308322448#1 308322448#2 196116976#0 618990022#6 618990022#7 618990022#8 618990022#9 618990022#10 618990022#11 618990022#12 618990022#13"/>
    </vehicle>
    <vehicle id="bus84" type="bus_bus" depart="575.55" departLane="best">
        <route edges="5670253#1 -5670253#1 -5670253#0 420899372 496986970#0 496986970#1 5672752#0 5672752#1"/>
    </vehicle>
    <vehicle id="bus85" type="bus_bus" depart="582.40" departLane="best">
        <route edges="196116975#4 460065822#0 460065820 420899373 -196116988#0 5670253#0 5670253#1 5670874#0 5670874#1 5670874#2"/>
    </vehicle>
    <vehicle id="bus86" type="bus_bus" depart="589.25" departLane="best">
        <route edges="420890028 420890024 420890025 420890029 439933933 663543997 -196117083 -5672752#1 -5672752#0 -496986969#1 -496986969#0 497258108#0 308322447#3 308322447#4"/>
    </vehicle>
    <vehicle id="bus87" type="bus_bus" depart="596.10" departLane="best">
        <route edges="5669664#1 422298615#4 -497258109 496986969#0 496986969#1 5672752#0 5672752#1 196117083 196117092"/>
    </vehicle>
    <vehicle id="bus88" type="bus_bus" depart="602.95" departLane="best">
        <route edges="618990022#7 496989355#1 496989355#3 382740985#0 382740985#3 46538375#11 46538375#13"/>
    </vehicle>
    <vehicle id="bus89" type="bus_bus" depart="609.80" departLane="best">
        <route edges="618990022#0 618990022#3 618990022#4 618990022#6 618990022#7 618990022#8 618990022#9 618990022#10 618990022#11 618990022#12 618990022#13 195743336#1 195743336#2"/>
    </vehicle>
    <vehicle id="bus90" type="bus_bus" depart="616.66" departLane="best">
        <route edges="618990022#4 196116976#1 196116976#3 196116976#5 196116976#6 196116976#7"/>
    </vehicle>
    <vehicle id="bus91" type="bus_bus" depart="623.51" departLane="best">
        <route edges="-5670253#1 -5670253#0 420899372 -195743152#0 439801903"/>
    </vehicle>
    <vehicle id="bus92" type="bus_bus" depart="630.36" departLane="best">
        <route edges="46538375#0 46538375#6 46538375#9 46538375#11"/>
    </vehicle>
    <vehicle id="bus93" type="bus_bus" depart="637.21" departLane="best">
        <route edges="226041033 324118556#1 420890025 420890029 439933933 663543997 -196117083 -5672752#1 -5672752#0 -496986969#1 -496986969#0 497258108#0 497258108#1 5670253#0 5670253#1 5670874#0 5670874#1 5670874#2 5671574#0 5671574#1"/>
    </vehicle>
    <vehicle id="bus94" type="bus_bus" depart="644.06" departLane="best">
        <route edges="46583189#2 5669664#0 5669664#1 422298615#4 -497258109 497258108#0 497258108#1 420899372 -195743152#0 439801903 460065821#1 460065822#0"/>
    </vehicle>
    <vehicle id="bus95" type="bus_bus" depart="650.91" departLane="best">
        <route edges="420890026 420890028 420890024 420890025 420890029 439933933 663543997 505582406#0 505582406#1 196117084#0"/>
    </vehicle>
    <vehicle id="bus96" type="bus_bus" depart="657.77" departLane="best">
        <route edges="420899373 496986970#0 496986970#1 496989355#0 496989355#1 496989355#3 382740985#0 382740985#3 46538375#11 569345537#1"/>
    </vehicle>
    <vehicle id="bus97" type="bus_bus" depart="664.62" departLane="best">
        <route edges="5669664#1 422298615#4 -497258109 496986969#0 496986969#1 496989355#0 496989355#1 496989355#3 382740985#0 46538371#0 196116976#6 196116976#7"/>
    </vehicle>
    <vehicle id="bus98" type="bus_bus" depart="671.47" departLane="best">
        <route edges="196116975#0 196116975#4 460065822#0 22898530#0 22898530#2 22898530#3 22898530#4 308322448#1 308322448#2 -5672752#1 -5672752#0 -496986969#1"/>
    </vehicle>
    <vehicle id="bus99" type="bus_bus" depart="678.32" departLane="best">
        <route edges="5672290#1 5670873#0 5670873#1 -5670253#1 -5670253#0 420899372 496986970#0 496986970#1 5672752#0 -5672752#0"/>
    </vehicle>
    <vehicle id="bus100" type="bus_bus" depart="685.17" departLane="best">
        <route edges="499172074#3 499172074#5 499172074#9 499172074#11 420890029 439933933 663543997 196117092 420890023 125480074 460065820 439801903 5670348#0 5670348#1"/>
    </vehicle>
    <vehicle id="bus101" type="bus_bus" depart="692.02" departLane="best">
        <route edges="195743342#0 5672290#1 5670873#0 5670873#1 -5670253#1 -5670253#0 420899372 496986970#0 496986970#1 496989355#0 618990022#8"/>
    </vehicle>
    <vehicle id="bus102" type="bus_bus" depart="698.88" departLane="best">
        <route edges="196116976#6 46538375#9 46538375#11 569345537#1 569345537#3 569345537#4 541350711#0 541350711#1 497258108#0 497258108#1 5670253#0 5670253#1 5670874#0 5670874#1 5670874#2 5671574#0 5671574#1"/>
    </vehicle>
    <vehicle id="bus104" type="bus_bus" depart="712.58" departLane="best">
        <route edges="499172074#0 499172074#1 499172074#2 499172074#3 496989355#3 382740985#0 46538371#0 46538371#3 46538371#4 46538371#5"/>
    </vehicle>
    <vehicle id="bus105" type="bus_bus" depart="719.43" departLane="best">
        <route edges="5670874#1 -5670874#1 -5670874#0 -5670253#1 -5670253#0 420899372 496986970#0 496986970#1 496989355#0 496989355#1 496989355#3 382740985#0 46538371#0 196116976#6 46538375#9"/>
    </vehicle>
    <vehicle id="bus106" type="bus_bus" depart="726.28" departLane="best">
        <route edges="569345537#1 569345537#3 569345537#4 541350711#0 541350711#1 497258109 5670139"/>
    </vehicle>
    <vehicle id="bus107" type="bus_bus" depart="733.13" departLane="best">
        <route edges="420899373 496986970#0 496986970#1 496989355#0 496989355#1 496989355#3 226041032#0 226041032#3 226041032#4"/>
    </vehicle>
    <vehicle id="bus108" type="bus_bus" depart="739.99" departLane="best">
        <route edges="505582406#0 -505582406#0 -196117083 196116976#0 196116976#1 196116976#3 324118554#1 382740985#0 382740985#3 46538375#11 46538375#13"/>
    </vehicle>
    <vehicle id="bus109" type="bus_bus" depart="746.84" departLane="best">
        <route edges="46538375#0 46538375#6 46538375#9 46538375#11 569345537#1 569345537#3 569345537#4 499172074#1 499172074#2 499172074#3 499172074#5 499172074#9 499172074#11 420890029 439933933 663543997 196117092 420890023 125480074 22898530#0 22898530#2 22898530#3"/>
    </vehicle>
    <vehicle id="bus110" type="bus_bus" depart="753.69" departLane="best">
        <route edges="-5670139 -497258109 496986969#0 496986969#1 5672752#0 5672752#1 196117083 196117092 308322446"/>
    </vehicle>
    <vehicle id="bus111" type="bus_bus" depart="760.54" departLane="best">
        <route edges="198924778#1 198924778#2 -5670874#2 -5670874#1 -5670874#0 -5670253#1 -5670253#0 420899372 496986970#0 496986970#1 5672752#0 5672752#1 196117083 196117092 308322446 308322448#1 308322448#2"/>
    </vehicle>
    <vehicle id="bus113" type="bus_bus" depart="774.25" departLane="best">
        <route edges="46525065#0 308322446 308322448#1 308322448#2 196117083 505582406#0 505582406#1"/>
    </vehicle>
    <vehicle id="bus114" type="bus_bus" depart="781.10" departLane="best">
        <route edges="308322447#1 308322447#2 497258108#1 5670253#0"/>
    </vehicle>
    <vehicle id="bus115" type="bus_bus" depart="787.95" departLane="best">
        <route edges="420890024 420890025 420890029 439933933 663543997 -196117083 -5672752#1 -5672752#0 -496986969#1 -496986969#0 497258109 5670139"/>
    </vehicle>
    <vehicle id="bus116" type="bus_bus" depart="794.80" departLane="best">
        <route edges="420890026 420890028 420890024 420890025 420890029 439933933 663543997 -196117083 -5672752#1 -5672752#0 -496986969#1 -496986969#0 497258109 -497258109"/>
    </vehicle>
    <vehicle id="bus117" type="bus_bus" depart="801.65" departLane="best">
        <route edges="46538375#0 46538375#6 46538375#9 46538375#11 569345537#1 569345537#3 569345537#4 541350711#0 541350711#1 497258109 -497258109"/>
    </vehicle>
    <vehicle id="bus119" type="bus_bus" depart="815.36" departLane="best">
        <route edges="499172074#3 496989355#3 226041032#0 226041032#3 226041032#4 569345537#4 541350711#0 541350711#1 497258108#0 497258108#1 5670253#0 5670253#1 5670874#0 5670874#1 5670874#2 5671574#0 5671574#1"/>
    </vehicle>
    <vehicle id="bus120" type="bus_bus" depart="822.21" departLane="best">
        <route edges="-196117084#1 -505582406#1 -505582406#0 -196117083 196116976#0 196116976#1 196116976#3 324118554#1 382740985#0 382740985#3 46538375#11 46538375#13"/>
    </vehicle>
    <vehicle id="bus121" type="bus_bus" depart="829.06" departLane="best">
        <route edges="46583189#1 46583189#2 5669664#0 5669664#1 422298615#4 -497258109 497258108#0 497258108#1 420899372 -195743152#0 439801903 5670348#0 5670348#1"/>
    </vehicle>
    <vehicle id="bus122" type="bus_bus" depart="835.91" departLane="best">
        <route edges="618990022#11 618990022#12 541350711#1 496986969#0 496986969#1 5672752#0 5672752#1 196117083 505582406#0 505582406#1 196117084#0"/>
    </vehicle>
    <vehicle id="bus123" type="bus_bus" depart="842.76" departLane="best">
        <route edges="-196117084#1 -505582406#1 -505582406#0 -196117083 196116976#0 196116976#1 196116976#3"/>
    </vehicle>
    <vehicle id="bus124" type="bus_bus" depart="849.61" departLane="best">
        <route edges="497258108#0 497258108#1 420899372 -195743152#0 439801903 5670348#0 5670348#1"/>
    </vehicle>
    <vehicle id="bus125" type="bus_bus" depart="856.47" departLane="best">
        <route edges="195743342#0 198924778#0 198924778#1 198924778#2 422298615#1 422298615#4 -497258109 497258108#0 497258108#1"/>
    </vehicle>
    <vehicle id="bus126" type="bus_bus" depart="863.32" departLane="best">
        <route edges="499172074#0 541350711#0 541350711#1 496986969#0 496986969#1 5672752#0 5672752#1 -5672752#1"/>
    </vehicle>
    <vehicle id="bus127" type="bus_bus" depart="870.17" departLane="best">
        <route edges="-5670253#0 420899372 -195743152#0 439801903 5670348#0 5670348#1"/>
    </vehicle>
    <vehicle id="bus128" type="bus_bus" depart="877.02" departLane="best">
        <route edges="-5670874#2 -5670874#1 -5670874#0 -5670253#1 -5670253#0 420899372 -195743152#0 439801903 91383966#1"/>
    </vehicle>
    <vehicle id="bus129" type="bus_bus" depart="883.87" departLane="best">