<?xml version="1.0" encoding="UTF-8"?>
<!-- generated on 2019-03-18 00:26:07.776989 by $Id$
  options: 
-->
<routes xmlns:xsi="http://www.w3.org/2001/XMLSchema-instance" xsi:noNamespaceSchemaLocation="http://sumo.dlr.de/xsd/routes_file.xsd">
    <vType id="ped_pedestrian" vClass="pedestrian"/>
    <person id="ped0" depart="0.00" type="ped_pedestrian">
        <walk from="436899190#0" to="-226041032#4"/>
    </person>
    <person id="ped1" depart="0.51" type="ped_pedestrian">
        <walk from="153232761#10" to="113049819#0"/>
    </person>
    <person id="ped2" depart="1.02" type="ped_pedestrian">
        <walk from="458452177#0" to="436899199#0"/>
    </person>
    <person id="ped3" depart="1.54" type="ped_pedestrian">
        <walk from="541350711#0" to="-496986969#1"/>
    </person>
    <person id="ped4" depart="2.05" type="ped_pedestrian">
        <walk from="308322447#4" to="-22898530#2"/>
    </person>
    <person id="ped5" depart="2.56" type="ped_pedestrian">
        <walk from="113049816#1" to="385446609#0"/>
    </person>
    <person id="ped6" depart="3.07" type="ped_pedestrian">
        <walk from="-226041032#4" to="113049808#3"/>
    </person>
    <person id="ped7" depart="3.59" type="ped_pedestrian">
        <walk from="436899192" to="427087527"/>
    </person>
    <person id="ped8" depart="4.10" type="ped_pedestrian">
        <walk from="113049816#2" to="435346678"/>
    </person>
    <person id="ped9" depart="4.61" type="ped_pedestrian">
        <walk from="499172074#11" to="-196116976#2"/>
    </person>
    <person id="ped10" depart="5.12" type="ped_pedestrian">
        <walk from="499172074#0" to="436899206#3"/>
    </person>
    <person id="ped11" depart="5.64" type="ped_pedestrian">
        <walk from="196116976#5" to="109269756#1"/>
    </person>
    <person id="ped12" depart="6.15" type="ped_pedestrian">
        <walk from="587256611#1" to="196116976#1"/>
    </person>
    <person id="ped13" depart="6.66" type="ped_pedestrian">
        <walk from="-499172074#1" to="-499172074#11"/>
    </person>
    <person id="ped14" depart="7.17" type="ped_pedestrian">
        <walk from="510806172" to="436899180"/>
    </person>
    <person id="ped15" depart="7.68" type="ped_pedestrian">
        <walk from="499172074#1" to="458448242#1"/>
    </person>
    <person id="ped16" depart="8.20" type="ped_pedestrian">
        <walk from="420905130#2" to="618990022#12"/>
    </person>
    <person id="ped17" depart="8.71" type="ped_pedestrian">
        <walk from="248632173#1" to="427087536"/>
    </person>
    <person id="ped18" depart="9.22" type="ped_pedestrian">
        <walk from="510806160" to="436899185"/>
    </person>
    <person id="ped19" depart="9.73" type="ped_pedestrian">
        <walk from="510806200" to="427670438"/>
    </person>
    <person id="ped20" depart="10.25" type="ped_pedestrian">
        <walk from="439801903" to="-420890026"/>
    </person>
    <person id="ped21" depart="10.76" type="ped_pedestrian">
        <walk from="113049823" to="153232761#5"/>
    </person>
    <person id="ped22" depart="11.27" type="ped_pedestrian">
        <walk from="-46538375#5" to="113049826#1"/>
    </person>
    <person id="ped23" depart="11.78" type="ped_pedestrian">
        <walk from="-499172074#13" to="153232761#12"/>
    </person>
    <person id="ped24" depart="12.30" type="ped_pedestrian">
        <walk from="436899189#0" to="226041033"/>
    </person>
    <person id="ped25" depart="12.81" type="ped_pedestrian">
        <walk from="22898530#2" to="113049811#2"/>
    </person>
    <person id="ped26" depart="13.32" type="ped_pedestrian">
        <walk from="153232751" to="5672951#1"/>
    </person>
    <person id="ped27" depart="13.83" type="ped_pedestrian">
        <walk from="436899191#1" to="436899183#0"/>
    </person>
    <person id="ped28" depart="14.34" type="ped_pedestrian">
        <walk from="113049801#3" to="458448242#1"/>
    </person>
    <person id="ped29" depart="14.86" type="ped_pedestrian">
        <walk from="113049800" to="248632174#0"/>
    </person>
    <person id="ped30" depart="15.37" type="ped_pedestrian">
        <walk from="661047622" to="436899190#1"/>
    </person>
    <person id="ped31" depart="15.88" type="ped_pedestrian">
        <walk from="427087540" to="436899201"/>
    </person>
    <person id="ped32" depart="16.39" type="ped_pedestrian">
        <walk from="510806170" to="46538375#9"/>
    </person>
    <person id="ped33" depart="16.91" type="ped_pedestrian">
        <walk from="113049824#0" to="-22898530#3"/>
    </person>
    <person id="ped34" depart="17.42" type="ped_pedestrian">
        <walk from="162154228" to="153232754"/>
    </person>
    <person id="ped35" depart="17.93" type="ped_pedestrian">
        <walk from="113049811#3" to="569345537#3"/>
    </person>
    <person id="ped36" depart="18.44" type="ped_pedestrian">
        <walk from="510806210" to="162138628#6"/>
    </person>
    <person id="ped37" depart="18.96" type="ped_pedestrian">
        <walk from="436899194#0" to="259882488"/>
    </person>
    <person id="ped38" depart="19.47" type="ped_pedestrian">
        <walk from="5670873#0" to="329988123#1"/>
    </person>
    <person id="ped39" depart="19.98" type="ped_pedestrian">
        <walk from="128582379" to="128578942#2"/>
    </person>
    <person id="ped40" depart="20.49" type="ped_pedestrian">
        <walk from="427087544" to="128582376#1"/>
    </person>
    <person id="ped41" depart="21.00" type="ped_pedestrian">
        <walk from="435346675#1" to="5669353"/>
    </person>
    <person id="ped42" depart="21.52" type="ped_pedestrian">
        <walk from="264211595" to="113049816#1"/>
    </person>
    <person id="ped43" depart="22.03" type="ped_pedestrian">
        <walk from="663543997" to="385446614#0"/>
    </person>
    <person id="ped44" depart="22.54" type="ped_pedestrian">
        <walk from="-499172074#0" to="-420890026"/>
    </person>
    <person id="ped45" depart="23.05" type="ped_pedestrian">
        <walk from="-499172074#7" to="436899187#1"/>
    </person>
    <person id="ped46" depart="23.57" type="ped_pedestrian">
        <walk from="496986970#1" to="308322447#4"/>
    </person>
    <person id="ped47" depart="24.08" type="ped_pedestrian">
        <walk from="-458448241#0" to="248632174#1"/>
    </person>
    <person id="ped48" depart="24.59" type="ped_pedestrian">
        <walk from="663543997" to="420899372"/>
    </person>
    <person id="ped49" depart="25.10" type="ped_pedestrian">
        <walk from="618990022#11" to="510806200"/>
    </person>
    <person id="ped50" depart="25.62" type="ped_pedestrian">
        <walk from="-196116976#5" to="458180198#1"/>
    </person>
    <person id="ped51" depart="26.13" type="ped_pedestrian">
        <walk from="436899200#1" to="420905130#2"/>
    </person>
    <person id="ped52" depart="26.64" type="ped_pedestrian">
        <walk from="153232751" to="436899190#1"/>
    </person>
    <person id="ped53" depart="27.15" type="ped_pedestrian">
        <walk from="-505582406#0" to="31292685#1"/>
    </person>
    <person id="ped54" depart="27.66" type="ped_pedestrian">
        <walk from="329988122#1" to="587256610"/>
    </person>
    <person id="ped55" depart="28.18" type="ped_pedestrian">
        <walk from="510806210" to="128582379"/>
    </person>
    <person id="ped56" depart="28.69" type="ped_pedestrian">
        <walk from="382740985#3" to="113049805#0"/>
    </person>
    <person id="ped57" depart="29.20" type="ped_pedestrian">
        <walk from="5670348#1" to="510806208"/>
    </person>
    <person id="ped58" depart="29.71" type="ped_pedestrian">
        <walk from="153232764" to="436899190#0"/>
    </person>
    <person id="ped59" depart="30.23" type="ped_pedestrian">
        <walk from="436899182#1" to="109269756#0"/>
    </person>
    <person id="ped60" depart="30.74" type="ped_pedestrian">
        <walk from="46538371#3" to="422298615#4"/>
    </person>
    <person id="ped61" depart="31.25" type="ped_pedestrian">
        <walk from="46583189#1" to="420899372"/>
    </person>
    <person id="ped62" depart="31.76" type="ped_pedestrian">
        <walk from="-195743152#0" to="195743336#1"/>
    </person>
    <person id="ped63" depart="32.28" type="ped_pedestrian">
        <walk from="-196117084#1" to="5672290#1"/>
    </person>
    <person id="ped64" depart="32.79" type="ped_pedestrian">
        <walk from="514341011#1" to="510806161"/>
    </person>
    <person id="ped65" depart="33.30" type="ped_pedestrian">
        <walk from="162138628#3" to="-458448240#0"/>
    </person>
    <person id="ped66" depart="33.81" type="ped_pedestrian">
        <walk from="514341011#0" to="570158316"/>
    </person>
    <person id="ped67" depart="34.32" type="ped_pedestrian">
        <walk from="-496986969#0" to="36930573#3"/>
    </person>
    <person id="ped68" depart="34.84" type="ped_pedestrian">
        <walk from="-458642436" to="46538371#0"/>
    </person>
    <person id="ped69" depart="35.35" type="ped_pedestrian">
        <walk from="46538371#5" to="-5670874#2"/>
    </person>
    <person id="ped70" depart="35.86" type="ped_pedestrian">
        <walk from="330748492#1" to="427087535#1"/>
    </person>
    <person id="ped71" depart="36.37" type="ped_pedestrian">
        <walk from="128582379" to="510806209"/>
    </person>
    <person id="ped72" depart="36.89" type="ped_pedestrian">
        <walk from="308322447#4" to="113049811#3"/>
    </person>
    <person id="ped73" depart="37.40" type="ped_pedestrian">
        <walk from="422298615#4" to="458448242#1"/>
    </person>
    <person id="ped74" depart="37.91" type="ped_pedestrian">
        <walk from="113049808#4" to="162138628#5"/>
    </person>
    <person id="ped75" depart="38.42" type="ped_pedestrian">
        <walk from="661047628" to="436899192"/>
    </person>
    <person id="ped76" depart="38.93" type="ped_pedestrian">
        <walk from="31292686#0" to="420890023"/>
    </person>
    <person id="ped77" depart="39.45" type="ped_pedestrian">
        <walk from="-5670253#0" to="113049819#1"/>
    </person>
    <person id="ped78" depart="39.96" type="ped_pedestrian">
        <walk from="196116976#3" to="435346675#2"/>
    </person>
    <person id="ped79" depart="40.47" type="ped_pedestrian">
        <walk from="113049824#0" to="113049816#2"/>
    </person>
    <person id="ped80" depart="40.98" type="ped_pedestrian">
        <walk from="-458672836" to="436899187#3"/>
    </person>
    <person id="ped81" depart="41.50" type="ped_pedestrian">
        <walk from="113049824#0" to="5670253#0"/>
    </person>
    <person id="ped82" depart="42.01" type="ped_pedestrian">
        <walk from="510806199" to="-458672836"/>
    </person>
    <person id="ped83" depart="42.52" type="ped_pedestrian">
        <walk from="113049826#3" to="436899197#0"/>
    </person>
    <person id="ped84" depart="43.03" type="ped_pedestrian">
        <walk from="113049814#1" to="-5672752#1"/>
    </person>
    <person id="ped85" depart="43.55" type="ped_pedestrian">
        <walk from="5672951#0" to="427670433"/>
    </person>
    <person id="ped86" depart="44.06" type="ped_pedestrian">
        <walk from="330748492#0" to="496986969#0"/>
    </person>
    <person id="ped87" depart="44.57" type="ped_pedestrian">
        <walk from="499172074#1" to="113049807#2"/>
    </person>
    <person id="ped88" depart="45.08" type="ped_pedestrian">
        <walk from="-499172074#11" to="31292684"/>
    </person>
    <person id="ped89" depart="45.59" type="ped_pedestrian">
        <walk from="308322447#4" to="330748490#1"/>
    </person>
    <person id="ped90" depart="46.11" type="ped_pedestrian">
        <walk from="458448242#1" to="436899198"/>
    </person>
    <person id="ped91" depart="46.62" type="ped_pedestrian">
        <walk from="618990022#8" to="-499172074#11"/>
    </person>
    <person id="ped92" depart="47.13" type="ped_pedestrian">
        <walk from="266861403" to="196116976#3"/>
    </person>
    <person id="ped93" depart="47.64" type="ped_pedestrian">
        <walk from="510806200" to="128578942#3"/>
    </person>
    <person id="ped94" depart="48.16" type="ped_pedestrian">
        <walk from="113049807#2" to="324118558"/>
    </person>
    <person id="ped95" depart="48.67" type="ped_pedestrian">
        <walk from="308322447#4" to="153232761#12"/>
    </person>
    <person id="ped96" depart="49.18" type="ped_pedestrian">
        <walk from="128578942#4" to="5670874#2"/>
    </person>
    <person id="ped97" depart="49.69" type="ped_pedestrian">
        <walk from="321166648" to="510806200"/>
    </person>
    <person id="ped98" depart="50.21" type="ped_pedestrian">
        <walk from="427087535#1" to="-420890028"/>
    </person>
    <person id="ped99" depart="50.72" type="ped_pedestrian">
        <walk from="91383966#1" to="510806163"/>
    </person>
    <person id="ped100" depart="51.23" type="ped_pedestrian">
        <walk from="618990022#10" to="5671574#1"/>
    </person>
    <person id="ped101" depart="51.74" type="ped_pedestrian">
        <walk from="510806183" to="113049801#0"/>
    </person>
    <person id="ped102" depart="52.25" type="ped_pedestrian">
        <walk from="36930573#3" to="113049814#0"/>
    </person>
    <person id="ped103" depart="52.77" type="ped_pedestrian">
        <walk from="264211595" to="-458448240#0"/>
    </person>
    <person id="ped104" depart="53.28" type="ped_pedestrian">
        <walk from="248632174#0" to="618990022#8"/>
    </person>
    <person id="ped105" depart="53.79" type="ped_pedestrian">
        <walk from="128582379" to="496986969#0"/>
    </person>
    <person id="ped106" depart="54.30" type="ped_pedestrian">
        <walk from="329988122#2" to="308322447#4"/>
    </person>
    <person id="ped107" depart="54.82" type="ped_pedestrian">
        <walk from="587256611#1" to="661047628"/>
    </person>
    <person id="ped108" depart="55.33" type="ped_pedestrian">
        <walk from="427087540" to="458180198#0"/>
    </person>
    <person id="ped109" depart="55.84" type="ped_pedestrian">
        <walk from="109269756#1" to="153232761#9"/>
    </person>
    <person id="ped110" depart="56.35" type="ped_pedestrian">
        <walk from="618990022#10" to="427670440#0"/>
    </person>
    <person id="ped111" depart="56.87" type="ped_pedestrian">
        <walk from="427087524" to="458642436"/>
    </person>
    <person id="ped112" depart="57.38" type="ped_pedestrian">
        <walk from="-458448233" to="427670441"/>
    </person>
    <person id="ped113" depart="57.89" type="ped_pedestrian">
        <walk from="382740985#6" to="510806195"/>
    </person>
    <person id="ped114" depart="58.40" type="ped_pedestrian">
        <walk from="109269756#2" to="587256612#1"/>
    </person>
    <person id="ped115" depart="58.91" type="ped_pedestrian">
        <walk from="-46538375#5" to="113049807#0"/>
    </person>
    <person id="ped116" depart="59.43" type="ped_pedestrian">
        <walk from="436899178#0" to="436899199#0"/>
    </person>
    <person id="ped117" depart="59.94" type="ped_pedestrian">
        <walk from="113049826#2" to="-5670253#0"/>
    </person>
    <person id="ped118" depart="60.45" type="ped_pedestrian">
        <walk from="514341011#6" to="128578942#2"/>
    </person>
    <person id="ped119" depart="60.96" type="ped_pedestrian">
        <walk from="436899177#1" to="436899186#0"/>
    </person>
    <person id="ped120" depart="61.48" type="ped_pedestrian">
        <walk from="308322447#2" to="427670441"/>
    </person>
    <person id="ped121" depart="61.99" type="ped_pedestrian">
        <walk from="420890026" to="5672951#0"/>
    </person>
    <person id="ped122" depart="62.50" type="ped_pedestrian">
        <walk from="113049811#0" to="45782068"/>
    </person>
    <person id="ped123" depart="63.01" type="ped_pedestrian">
        <walk from="125480074" to="259882488"/>
    </person>
    <person id="ped124" depart="63.53" type="ped_pedestrian">
        <walk from="436899197#1" to="153232764"/>
    </person>
    <person id="ped125" depart="64.04" type="ped_pedestrian">
        <walk from="162154228" to="460065820"/>
    </person>
    <person id="ped126" depart="64.55" type="ped_pedestrian">
        <walk from="-46538375#10" to="329988122#3"/>
    </person>
    <person id="ped127" depart="65.06" type="ped_pedestrian">
        <walk from="91383966#1" to="663543997"/>
    </person>
    <person id="ped128" depart="65.57" type="ped_pedestrian">
        <walk from="-46538375#10" to="113049814#0"/>
    </person>
    <person id="ped129" depart="66.09" type="ped_pedestrian">
        <walk from="128582379" to="5672752#1"/>
    </person>
    <person id="ped130" depart="66.60" type="ped_pedestrian">
        <walk from="514341011#2" to="514341011#1"/>
    </person>
    <person id="ped131" depart="67.11" type="ped_pedestrian">
        <walk from="22898530#2" to="109269756#2"/>
    </person>
    <person id="ped132" depart="67.62" type="ped_pedestrian">
        <walk from="510806162" to="436899206#5"/>
    </person>
    <person id="ped133" depart="68.14" type="ped_pedestrian">
        <walk from="436899183#1" to="618990022#9"/>
    </person>
    <person id="ped134" depart="68.65" type="ped_pedestrian">
        <walk from="436899193#1" to="-196116976#2"/>
    </person>
    <person id="ped135" depart="69.16" type="ped_pedestrian">
        <walk from="499172074#2" to="153232764"/>
    </person>
    <person id="ped136" depart="69.67" type="ped_pedestrian">
        <walk from="436899194#4" to="569345537#0"/>
    </person>
    <person id="ped137" depart="70.19" type="ped_pedestrian">
        <walk from="-570158316" to="-555303393"/>
    </person>
    <person id="ped138" depart="70.70" type="ped_pedestrian">
        <walk from="-499172074#4" to="427087536"/>
    </person>
    <person id="ped139" depart="71.21" type="ped_pedestrian">
        <walk from="153232761#1" to="436899180"/>
    </person>
    <person id="ped140" depart="71.72" type="ped_pedestrian">
        <walk from="45782068" to="113049809"/>
    </person>
    <person id="ped141" depart="72.23" type="ped_pedestrian">
        <walk from="436899189#0" to="128582379"/>
    </person>
    <person id="ped142" depart="72.75" type="ped_pedestrian">
        <walk from="377577994#0" to="5670139"/>
    </person>
    <person id="ped143" depart="73.26" type="ped_pedestrian">
        <walk from="510806172" to="-499172074#0"/>
    </person>
    <person id="ped144" depart="73.77" type="ped_pedestrian">
        <walk from="308322447#4" to="153232761#11"/>
    </person>
    <person id="ped145" depart="74.28" type="ped_pedestrian">
        <walk from="-196116976#0" to="46538375#11"/>
    </person>
    <person id="ped146" depart="74.80" type="ped_pedestrian">
        <walk from="436899189#1" to="128582376#1"/>
    </person>
    <person id="ped147" depart="75.31" type="ped_pedestrian">
        <walk from="458452177#3" to="427087536"/>
    </person>
    <person id="ped148" depart="75.82" type="ped_pedestrian">
        <walk from="308322448#2" to="-196116976#4"/>
    </person>
    <person id="ped149" depart="76.33" type="ped_pedestrian">
        <walk from="-46538375#12" to="514341011#3"/>
    </person>
    <person id="ped150" depart="76.85" type="ped_pedestrian">
        <walk from="5670139" to="427087530"/>
    </person>
    <person id="ped151" depart="77.36" type="ped_pedestrian">
        <walk from="510806162" to="427670441"/>
    </person>
    <person id="ped152" depart="77.87" type="ped_pedestrian">
        <walk from="108111447#3" to="-5670874#1"/>
    </person>
    <person id="ped153" depart="78.38" type="ped_pedestrian">
        <walk from="162138628#3" to="5669353"/>
    </person>
    <person id="ped154" depart="78.89" type="ped_pedestrian">
        <walk from="496989355#1" to="510806200"/>
    </person>
    <person id="ped155" depart="79.41" type="ped_pedestrian">
        <walk from="5669353" to="113049811#3"/>
    </person>
    <person id="ped156" depart="79.92" type="ped_pedestrian">
        <walk from="128578942#4" to="-499172074#13"/>
    </person>
    <person id="ped157" depart="80.43" type="ped_pedestrian">
        <walk from="46583189#2" to="514341011#3"/>
    </person>
    <person id="ped158" depart="80.94" type="ped_pedestrian">
        <walk from="29317327#1" to="436899186#0"/>
    </person>
    <person id="ped159" depart="81.46" type="ped_pedestrian">
        <walk from="109269756#1" to="5672290#1"/>
    </person>
    <person id="ped160" depart="81.97" type="ped_pedestrian">
        <walk from="510806205" to="618990022#3"/>
    </person>
    <person id="ped161" depart="82.48" type="ped_pedestrian">
        <walk from="499172074#12" to="514341011#2"/>
    </person>
    <person id="ped162" depart="82.99" type="ped_pedestrian">
        <walk from="-226041032#4" to="458452177#0"/>
    </person>
    <person id="ped163" depart="83.51" type="ped_pedestrian">
        <walk from="196116975#4" to="5672752#0"/>
    </person>
    <person id="ped164" depart="84.02" type="ped_pedestrian">
        <walk from="497258108#1" to="510806204"/>
    </person>
    <person id="ped165" depart="84.53" type="ped_pedestrian">
        <walk from="499172074#12" to="153232751"/>
    </person>
    <person id="ped166" depart="85.04" type="ped_pedestrian">
        <walk from="496986969#1" to="-499172074#4"/>
    </person>
    <person id="ped167" depart="85.55" type="ped_pedestrian">
        <walk from="510806208" to="510806199"/>
    </person>
    <person id="ped168" depart="86.07" type="ped_pedestrian">
        <walk from="113049819#0" to="499172074#14"/>
    </person>
    <person id="ped169" depart="86.58" type="ped_pedestrian">
        <walk from="329988123#1" to="162138628#2"/>
    </person>
    <person id="ped170" depart="87.09" type="ped_pedestrian">
        <walk from="496989355#1" to="113049823"/>
    </person>
    <person id="ped171" depart="87.60" type="ped_pedestrian">
        <walk from="-226041032#3" to="113049808#0"/>
    </person>
    <person id="ped172" depart="88.12" type="ped_pedestrian">
        <walk from="195743342#0" to="510806205"/>
    </person>
    <person id="ped173" depart="88.63" type="ped_pedestrian">
        <walk from="618990022#0" to="153232761#12"/>
    </person>
    <person id="ped174" depart="89.14" type="ped_pedestrian">
        <walk from="436899190#1" to="264211595"/>
    </person>
    <person id="ped175" depart="89.65" type="ped_pedestrian">
        <walk from="618990022#6" to="420905130#2"/>
    </person>
    <person id="ped176" depart="90.17" type="ped_pedestrian">
        <walk from="569345537#0" to="-555303393"/>
    </person>
    <person id="ped177" depart="90.68" type="ped_pedestrian">
        <walk from="618990022#11" to="113049805#0"/>
    </person>
    <person id="ped178" depart="91.19" type="ped_pedestrian">
        <walk from="587260622#0" to="153232751"/>
    </person>
    <person id="ped179" depart="91.70" type="ped_pedestrian">
        <walk from="-499172074#4" to="31292685#1"/>
    </person>
    <person id="ped180" depart="92.21" type="ped_pedestrian">
        <walk from="458448242#1" to="162138628#6"/>
    </person>
    <person id="ped181" depart="92.73" type="ped_pedestrian">
        <walk from="436899182#0" to="385446614#1"/>
    </person>
    <person id="ped182" depart="93.24" type="ped_pedestrian">
        <walk from="248632175#1" to="427670438"/>
    </person>
    <person id="ped183" depart="93.75" type="ped_pedestrian">
        <walk from="128580946#0" to="44225588"/>
    </person>
    <person id="ped184" depart="94.26" type="ped_pedestrian">
        <walk from="-195743152#0" to="5671574#0"/>
    </person>
    <person id="ped185" depart="94.78" type="ped_pedestrian">
        <walk from="422298615#1" to="458180198#0"/>
    </person>
    <person id="ped186" depart="95.29" type="ped_pedestrian">
        <walk from="458452177#3" to="436899197#0"/>
    </person>
    <person id="ped187" depart="95.80" type="ped_pedestrian">
        <walk from="226041033" to="-458672836"/>
    </person>
    <person id="ped188" depart="96.31" type="ped_pedestrian">
        <walk from="436899194#4" to="196116975#0"/>
    </person>
    <person id="ped189" depart="96.83" type="ped_pedestrian">
        <walk from="162138628#6" to="510806183"/>
    </person>
    <person id="ped190" depart="97.34" type="ped_pedestrian">
        <walk from="458180198#0" to="153232764"/>
    </person>
    <person id="ped191" depart="97.85" type="ped_pedestrian">
        <walk from="162138628#4" to="29317327#2"/>
    </person>
    <person id="ped192" depart="98.36" type="ped_pedestrian">
        <walk from="266861403" to="153232761#8"/>
    </person>
    <person id="ped193" depart="98.87" type="ped_pedestrian">
        <walk from="-5670874#1" to="308322447#3"/>
    </person>
    <person id="ped194" depart="99.39" type="ped_pedestrian">
        <walk from="569345537#1" to="436899199#1"/>
    </person>
    <person id="ped195" depart="99.90" type="ped_pedestrian">
        <walk from="5669664#1" to="436899184#1"/>
    </person>
    <person id="ped196" depart="100.41" type="ped_pedestrian">
        <walk from="162138628#0" to="427087531"/>
    </person>
    <person id="ped197" depart="100.92" type="ped_pedestrian">
        <walk from="-195743152#0" to="153232761#4"/>
    </person>
    <person id="ped198" depart="101.44" type="ped_pedestrian">
        <walk from="31292683" to="427670440#0"/>
    </person>
    <person id="ped199" depart="101.95" type="ped_pedestrian">
        <walk from="436899194#0" to="330748490#0"/>
    </person>
    <person id="ped200" depart="102.46" type="ped_pedestrian">
        <walk from="321166647" to="113049814#0"/>
    </person>
    <person id="ped201" depart="102.97" type="ped_pedestrian">
        <walk from="330748492#0" to="5669664#0"/>
    </person>
    <person id="ped202" depart="103.49" type="ped_pedestrian">
        <walk from="496989355#1" to="113049801#2"/>
    </person>
    <person id="ped203" depart="104.00" type="ped_pedestrian">
        <walk from="-496986969#0" to="385460486"/>
    </person>
    <person id="ped204" depart="104.51" type="ped_pedestrian">
        <walk from="436899187#4" to="196116976#0"/>
    </person>
    <person id="ped205" depart="105.02" type="ped_pedestrian">
        <walk from="499172074#2" to="460065820"/>
    </person>
    <person id="ped206" depart="105.53" type="ped_pedestrian">
        <walk from="436899197#1" to="113049819#1"/>
    </person>
    <person id="ped207" depart="106.05" type="ped_pedestrian">
        <walk from="113049808#3" to="-226041032#3"/>
    </person>
    <person id="ped208" depart="106.56" type="ped_pedestrian">
        <walk from="128578942#1" to="330748492#1"/>
    </person>
    <person id="ped209" depart="107.07" type="ped_pedestrian">
        <walk from="510806183" to="-46538375#10"/>
    </person>
    <person id="ped210" depart="107.58" type="ped_pedestrian">
        <walk from="308322446" to="436899187#3"/>
    </person>
    <person id="ped211" depart="108.10" type="ped_pedestrian">
        <walk from="113049808#1" to="436899206#2"/>
    </person>
    <person id="ped212" depart="108.61" type="ped_pedestrian">
        <walk from="377577999#1" to="128578942#1"/>
    </person>
    <person id="ped213" depart="109.12" type="ped_pedestrian">
        <walk from="436899194#0" to="-196116976#10"/>
    </person>
    <person id="ped214" depart="109.63" type="ped_pedestrian">
        <walk from="458672836" to="46538375#11"/>
    </person>
    <person id="ped215" depart="110.14" type="ped_pedestrian">
        <walk from="-499172074#20" to="308322448#1"/>
    </person>
    <person id="ped216" depart="110.66" type="ped_pedestrian">
        <walk from="113049804" to="587256611#1"/>
    </person>
    <person id="ped217" depart="111.17" type="ped_pedestrian">
        <walk from="420890023" to="-420890028"/>
    </person>
    <person id="ped218" depart="111.68" type="ped_pedestrian">
        <walk from="128578942#4" to="510806183"/>
    </person>
    <person id="ped219" depart="112.19" type="ped_pedestrian">
        <walk from="329988122#2" to="497258108#1"/>
    </person>
    <person id="ped220" depart="112.71" type="ped_pedestrian">
        <walk from="436899196#1" to="661047622"/>
    </person>
    <person id="ped221" depart="113.22" type="ped_pedestrian">
        <walk from="436899178#0" to="587256608#1"/>
    </person>
    <person id="ped222" depart="113.73" type="ped_pedestrian">
        <walk from="541350711#0" to="436899183#1"/>
    </person>
    <person id="ped223" depart="114.24" type="ped_pedestrian">
        <walk from="458180198#0" to="385446609#0"/>
    </person>
    <person id="ped224" depart="114.76" type="ped_pedestrian">
        <walk from="510806160" to="427087531"/>
    </person>
    <person id="ped225" depart="115.27" type="ped_pedestrian">
        <walk from="5669353" to="458452177#4"/>
    </person>
    <person id="ped226" depart="115.78" type="ped_pedestrian">
        <walk from="330748492#1" to="128580948"/>
    </person>
    <person id="ped227" depart="116.29" type="ped_pedestrian">
        <walk from="128578942#3" to="436899189#1"/>
    </person>
    <person id="ped228" depart="116.80" type="ped_pedestrian">
        <walk from="46538371#5" to="420890025"/>
    </person>
    <person id="ped229" depart="117.32" type="ped_pedestrian">
        <walk from="436899187#1" to="153232761#10"/>
    </person>
    <person id="ped230" depart="117.83" type="ped_pedestrian">
        <walk from="-46538375#13" to="153232761#3"/>
    </person>
    <person id="ped231" depart="118.34" type="ped_pedestrian">
        <walk from="153232761#1" to="186202420#1"/>
    </person>
    <person id="ped232" depart="118.85" type="ped_pedestrian">
        <walk from="422298615#4" to="108111438"/>
    </person>
    <person id="ped233" depart="119.37" type="ped_pedestrian">
        <walk from="113049824#1" to="436899206#1"/>
    </person>
    <person id="ped234" depart="119.88" type="ped_pedestrian">
        <walk from="439933933" to="-458448242#0"/>