<?xml version="1.0" encoding="UTF-8"?>
<!-- generated on 2019-03-18 00:26:07.655741 by $Id$ via randomTrips.py
  options: 
-->
<routes xmlns:xsi="http://www.w3.org/2001/XMLSchema-instance" xsi:noNamespaceSchemaLocation="http://sumo.dlr.de/xsd/routes_file.xsd">
    <vType id="bike_bicycle" vClass="bicycle">
    </vType>
    <trip id="bike0" depart="0.00" departLane="best" from="496986970#1" to="-226041032#4" type="bike_bicycle"/>
    <trip id="bike1" depart="2.98" departLane="best" from="198924778#1" to="196116976#6" type="bike_bicycle"/>
    <trip id="bike2" depart="5.96" departLane="best" from="5669664#0" to="541350711#0" type="bike_bicycle"/>
    <trip id="bike3" depart="8.94" departLane="best" from="618990022#11" to="-499172074#10" type="bike_bicycle"/>
    <trip id="bike4" depart="11.91" departLane="best" from="420890026" to="-458642436" type="bike_bicycle"/>
    <trip id="bike5" depart="14.89" departLane="best" from="195743342#0" to="46538371#0" type="bike_bicycle"/>
    <trip id="bike8" depart="23.83" departLane="best" from="195743342#0" to="496989355#1" type="bike_bicycle"/>
    <trip id="bike9" depart="26.81" departLane="best" from="5672752#0" to="-196116988#0" type="bike_bicycle"/>
    <trip id="bike10" depart="29.79" departLane="best" from="5672290#1" to="5669664#0" type="bike_bicycle"/>
    <trip id="bike11" depart="32.77" departLane="best" from="308322446" to="-5672752#1" type="bike_bicycle"/>
    <trip id="bike12" depart="35.74" departLane="best" from="648888157#2" to="308322448#1" type="bike_bicycle"/>
    <trip id="bike13" depart="38.72" departLane="best" from="-499172074#2" to="-499172074#12" type="bike_bicycle"/>
    <trip id="bike15" depart="44.68" departLane="best" from="5672290#1" to="5670221#3" type="bike_bicycle"/>
    <trip id="bike17" depart="50.64" departLane="best" from="324118556#1" to="46538375#9" type="bike_bicycle"/>
    <trip id="bike18" depart="53.62" departLane="best" from="569345537#0" to="499172074#1" type="bike_bicycle"/>
    <trip id="bike20" depart="59.57" departLane="best" from="499172074#3" to="-458672836" type="bike_bicycle"/>
    <trip id="bike21" depart="62.55" departLane="best" from="196116975#0" to="22898530#2" type="bike_bicycle"/>
    <trip id="bike22" depart="65.53" departLane="best" from="-499172074#11" to="196116976#7" type="bike_bicycle"/>
    <trip id="bike23" depart="68.51" departLane="best" from="-499172074#20" to="226041032#4" type="bike_bicycle"/>
    <trip id="bike24" depart="71.49" departLane="best" from="496986970#0" to="382740985#3" type="bike_bicycle"/>
    <trip id="bike25" depart="74.47" departLane="best" from="308322448#2" to="196116976#3" type="bike_bicycle"/>
    <trip id="bike26" depart="77.44" departLane="best" from="196117092" to="618990022#8" type="bike_bicycle"/>
    <trip id="bike27" depart="80.42" departLane="best" from="496989355#0" to="497258109" type="bike_bicycle"/>
    <trip id="bike29" depart="86.38" departLane="best" from="-5670874#1" to="420890023" type="bike_bicycle"/>
    <trip id="bike30" depart="89.36" departLane="best" from="663543998#2" to="499172074#14" type="bike_bicycle"/>
    <trip id="bike31" depart="92.34" departLane="best" from="460065822#0" to="555303393" type="bike_bicycle"/>
    <trip id="bike32" depart="95.32" departLane="best" from="569345537#4" to="5670874#0" type="bike_bicycle"/>
    <trip id="bike33" depart="98.30" departLane="best" from="196116975#0" to="-458642436" type="bike_bicycle"/>
    <trip id="bike34" depart="101.27" departLane="best" from="22898530#2" to="226041032#0" type="bike_bicycle"/>
    <trip id="bike36" depart="107.23" departLane="best" from="618990022#0" to="308322446" type="bike_bicycle"/>
    <trip id="bike37" depart="110.21" departLane="best" from="496989355#3" to="420890028" type="bike_bicycle"/>
    <trip id="bike38" depart="113.19" departLane="best" from="618990022#6" to="433476262#5" type="bike_bicycle"/>
    <trip id="bike39" depart="116.17" departLane="best" from="196117092" to="196117084#0" type="bike_bicycle"/>
    <trip id="bike41" depart="122.12" departLane="best" from="46538375#0" to="618990022#10" type="bike_bicycle"/>
    <trip id="bike42" depart="125.10" departLane="best" from="382740985#3" to="196116976#6" type="bike_bicycle"/>
    <trip id="bike43" depart="128.08" departLane="best" from="663543998#4" to="46538371#0" type="bike_bicycle"/>
    <trip id="bike44" depart="131.06" departLane="best" from="-499172074#13" to="-458672836" type="bike_bicycle"/>
    <trip id="bike45" depart="134.04" departLane="best" from="-499172074#4" to="499172074#12" type="bike_bicycle"/>
    <trip id="bike46" depart="137.02" departLane="best" from="5670874#1" to="420905130#2" type="bike_bicycle"/>
    <trip id="bike47" depart="140.00" departLane="best" from="-499172074#0" to="420890023" type="bike_bicycle"/>
    <trip id="bike48" depart="142.97" departLane="best" from="663543998#4" to="46538371#5" type="bike_bicycle"/>
    <trip id="bike49" depart="145.95" departLane="best" from="663543997" to="576438593#1" type="bike_bicycle"/>
    <trip id="bike51" depart="151.91" departLane="best" from="499172074#1" to="46538375#13" type="bike_bicycle"/>
    <trip id="bike52" depart="154.89" departLane="best" from="196117092" to="499172074#14" type="bike_bicycle"/>
    <trip id="bike53" depart="157.87" departLane="best" from="-499172074#7" to="433476262#0" type="bike_bicycle"/>
    <trip id="bike56" depart="166.80" departLane="best" from="439801903" to="195743336#0" type="bike_bicycle"/>
    <trip id="bike58" depart="172.76" departLane="best" from="226041033" to="499172074#14" type="bike_bicycle"/>
    <trip id="bike59" depart="175.74" departLane="best" from="46583189#1" to="-5672752#0" type="bike_bicycle"/>
    <trip id="bike60" depart="178.72" departLane="best" from="5670253#0" to="46538375#13" type="bike_bicycle"/>
    <trip id="bike61" depart="181.70" departLane="best" from="5670873#0" to="46538375#11" type="bike_bicycle"/>
    <trip id="bike62" depart="184.68" departLane="best" from="-195743152#0" to="308322447#2" type="bike_bicycle"/>
    <trip id="bike63" depart="187.65" departLane="best" from="-196117084#1" to="618990022#7" type="bike_bicycle"/>
    <trip id="bike64" depart="190.63" departLane="best" from="618990022#0" to="569345537#1" type="bike_bicycle"/>
    <trip id="bike65" depart="193.61" departLane="best" from="226041033" to="-477823038" type="bike_bicycle"/>
    <trip id="bike68" depart="202.55" departLane="best" from="-499172074#1" to="5670348#1" type="bike_bicycle"/>
    <trip id="bike69" depart="205.53" departLane="best" from="5670253#1" to="-5670253#0" type="bike_bicycle"/>
    <trip id="bike70" depart="208.51" departLane="best" from="433476262#1" to="46538375#9" type="bike_bicycle"/>
    <trip id="bike72" depart="214.46" departLane="best" from="420890026" to="196116976#3" type="bike_bicycle"/>
    <trip id="bike74" depart="220.42" departLane="best" from="186202420#1" to="308322446" type="bike_bicycle"/>
    <trip id="bike75" depart="223.40" departLane="best" from="663543998#3" to="499172074#2" type="bike_bicycle"/>
    <trip id="bike76" depart="226.38" departLane="best" from="420899372" to="46538371#4" type="bike_bicycle"/>
    <trip id="bike77" depart="229.36" departLane="best" from="-505582406#1" to="196116976#7" type="bike_bicycle"/>
    <trip id="bike78" depart="232.33" departLane="best" from="308322446" to="496989355#1" type="bike_bicycle"/>
    <trip id="bike79" depart="235.31" departLane="best" from="196116975#0" to="196116976#6" type="bike_bicycle"/>
    <trip id="bike80" depart="238.29" departLane="best" from="-499172074#1" to="499172074#13" type="bike_bicycle"/>
    <trip id="bike81" depart="241.27" departLane="best" from="196116975#0" to="618990022#12" type="bike_bicycle"/>
    <trip id="bike83" depart="247.23" departLane="best" from="196116976#0" to="505582406#0" type="bike_bicycle"/>
    <trip id="bike84" depart="250.21" departLane="best" from="195743342#0" to="-5670253#1" type="bike_bicycle"/>
    <trip id="bike85" depart="253.18" departLane="best" from="648888142#1" to="496986969#1" type="bike_bicycle"/>
    <trip id="bike86" depart="256.16" departLane="best" from="433476262#1" to="5670874#2" type="bike_bicycle"/>
    <trip id="bike87" depart="259.14" departLane="best" from="5672290#1" to="195743336#2" type="bike_bicycle"/>
    <trip id="bike88" depart="262.12" departLane="best" from="-499172074#20" to="422298615#4" type="bike_bicycle"/>
    <trip id="bike89" depart="265.10" departLane="best" from="420890026" to="433476262#7" type="bike_bicycle"/>
    <trip id="bike90" depart="268.08" departLane="best" from="541350711#0" to="505582406#1" type="bike_bicycle"/>
    <trip id="bike91" depart="271.06" departLane="best" from="663543998#1" to="-499172074#13" type="bike_bicycle"/>
    <trip id="bike92" depart="274.04" departLane="best" from="382740985#3" to="308322448#1" type="bike_bicycle"/>
    <trip id="bike94" depart="279.99" departLane="best" from="125480074" to="433476262#3" type="bike_bicycle"/>
    <trip id="bike95" depart="282.97" departLane="best" from="420890026" to="226041032#4" type="bike_bicycle"/>
    <trip id="bike96" depart="285.95" departLane="best" from="196116976#3" to="618990022#6" type="bike_bicycle"/>
    <trip id="bike97" depart="288.93" departLane="best" from="420899373" to="576438593#1" type="bike_bicycle"/>
    <trip id="bike98" depart="291.91" departLane="best" from="460065821#1" to="-477823038" type="bike_bicycle"/>
    <trip id="bike99" depart="294.89" departLane="best" from="663543998#4" to="569345537#3" type="bike_bicycle"/>
    <trip id="bike100" depart="297.86" departLane="best" from="663543997" to="618990022#6" type="bike_bicycle"/>
    <trip id="bike102" depart="303.82" departLane="best" from="433476262#4" to="196116976#5" type="bike_bicycle"/>
    <trip id="bike103" depart="306.80" departLane="best" from="382740985#3" to="-496986969#0" type="bike_bicycle"/>
    <trip id="bike104" depart="309.78" departLane="best" from="324118556#1" to="663543998#3" type="bike_bicycle"/>
    <trip id="bike105" depart="312.76" departLane="best" from="196117092" to="5670874#2" type="bike_bicycle"/>
    <trip id="bike106" depart="315.74" departLane="best" from="420905130#2" to="422298615#1" type="bike_bicycle"/>
    <trip id="bike107" depart="318.71" departLane="best" from="648888157#2" to="91383966#1" type="bike_bicycle"/>
    <trip id="bike109" depart="324.67" departLane="best" from="-5670874#0" to="22898530#4" type="bike_bicycle"/>
    <trip id="bike110" depart="327.65" departLane="best" from="663543997" to="496986970#1" type="bike_bicycle"/>
    <trip id="bike111" depart="330.63" departLane="best" from="458672836" to="5670348#0" type="bike_bicycle"/>
    <trip id="bike112" depart="333.61" departLane="best" from="-496986969#1" to="496989355#0" type="bike_bicycle"/>
    <trip id="bike113" depart="336.59" departLane="best" from="439801903" to="570158316" type="bike_bicycle"/>
    <trip id="bike115" depart="342.54" departLane="best" from="-499172074#11" to="195743336#2" type="bike_bicycle"/>
    <trip id="bike116" depart="345.52" departLane="best" from="46538375#11" to="541350711#0" type="bike_bicycle"/>
    <trip id="bike117" depart="348.50" departLane="best" from="196116975#4" to="-505582406#0" type="bike_bicycle"/>
    <trip id="bike118" depart="351.48" departLane="best" from="618990022#11" to="196117084#0" type="bike_bicycle"/>
    <trip id="bike119" depart="354.46" departLane="best" from="46538375#11" to="499172074#1" type="bike_bicycle"/>
    <trip id="bike120" depart="357.44" departLane="best" from="420890026" to="496989355#0" type="bike_bicycle"/>
    <trip id="bike121" depart="360.42" departLane="best" from="458180198#1" to="618990022#8" type="bike_bicycle"/>
    <trip id="bike123" depart="366.37" departLane="best" from="196116976#0" to="420890028" type="bike_bicycle"/>
    <trip id="bike124" depart="369.35" departLane="best" from="497258109" to="22898530#4" type="bike_bicycle"/>
    <trip id="bike125" depart="372.33" departLane="best" from="22898530#2" to="5670348#0" type="bike_bicycle"/>
    <trip id="bike126" depart="375.31" departLane="best" from="-499172074#10" to="433476262#5" type="bike_bicycle"/>
    <trip id="bike127" depart="378.29" departLane="best" from="663543998#4" to="91383966#1" type="bike_bicycle"/>
    <trip id="bike128" depart="381.27" departLane="best" from="-499172074#10" to="196116976#3" type="bike_bicycle"/>
    <trip id="bike129" depart="384.25" departLane="best" from="196117092" to="618990022#8" type="bike_bicycle"/>
    <trip id="bike130" depart="387.22" departLane="best" from="618990022#0" to="583505066#2" type="bike_bicycle"/>
    <trip id="bike131" depart="390.20" departLane="best" from="308322448#2" to="-5672752#1" type="bike_bicycle"/>
    <trip id="bike132" depart="393.18" departLane="best" from="569345537#1" to="5669664#1" type="bike_bicycle"/>
    <trip id="bike133" depart="396.16" departLane="best" from="46583189#2" to="663543998#4" type="bike_bicycle"/>
    <trip id="bike134" depart="399.14" departLane="best" from="496989355#3" to="-196116988#0" type="bike_bicycle"/>
    <trip id="bike135" depart="402.12" departLane="best" from="5672752#1" to="22898530#4" type="bike_bicycle"/>
    <trip id="bike136" depart="405.10" departLane="best" from="497258108#0" to="618990022#9" type="bike_bicycle"/>
    <trip id="bike137" depart="408.07" departLane="best" from="-555303393" to="-499172074#7" type="bike_bicycle"/>
    <trip id="bike138" depart="411.05" departLane="best" from="-499172074#4" to="46538375#9" type="bike_bicycle"/>
    <trip id="bike139" depart="414.03" departLane="best" from="198924778#0" to="497258108#1" type="bike_bicycle"/>
    <trip id="bike140" depart="417.01" departLane="best" from="505582406#0" to="196116976#0" type="bike_bicycle"/>
    <trip id="bike142" depart="422.97" departLane="best" from="433476262#4" to="618990022#12" type="bike_bicycle"/>
    <trip id="bike143" depart="425.95" departLane="best" from="569345537#4" to="-499172074#12" type="bike_bicycle"/>
    <trip id="bike144" depart="428.92" departLane="best" from="420890026" to="226041032#3" type="bike_bicycle"/>
    <trip id="bike147" depart="437.86" departLane="best" from="5669664#1" to="46538375#9" type="bike_bicycle"/>
    <trip id="bike148" depart="440.84" departLane="best" from="420890026" to="-196116988#0" type="bike_bicycle"/>
    <trip id="bike149" depart="443.82" departLane="best" from="-499172074#10" to="583505066#2" type="bike_bicycle"/>
    <trip id="bike151" depart="449.78" departLane="best" from="569345537#1" to="496986970#1" type="bike_bicycle"/>
    <trip id="bike152" depart="452.75" departLane="best" from="-5670253#0" to="-5670253#0" type="bike_bicycle"/>
    <trip id="bike153" depart="455.73" departLane="best" from="22898530#0" to="618990022#11" type="bike_bicycle"/>
    <trip id="bike154" depart="458.71" departLane="best" from="5670874#2" to="576438593#1" type="bike_bicycle"/>
    <trip id="bike155" depart="461.69" departLane="best" from="618990022#12" to="196116976#3" type="bike_bicycle"/>
    <trip id="bike156" depart="464.67" departLane="best" from="196116976#3" to="-499172074#2" type="bike_bicycle"/>
    <trip id="bike157" depart="467.65" departLane="best" from="5670873#1" to="583505066#3" type="bike_bicycle"/>
    <trip id="bike158" depart="470.63" departLane="best" from="420890023" to="499172074#1" type="bike_bicycle"/>
    <trip id="bike159" depart="473.60" departLane="best" from="-5670874#0" to="618990022#7" type="bike_bicycle"/>
    <trip id="bike161" depart="479.56" departLane="best" from="5672752#0" to="583505066#2" type="bike_bicycle"/>
    <trip id="bike163" depart="485.52" departLane="best" from="22946967#1" to="618990022#7" type="bike_bicycle"/>
    <trip id="bike166" depart="494.45" departLane="best" from="5670874#0" to="-499172074#4" type="bike_bicycle"/>
    <trip id="bike168" depart="500.41" departLane="best" from="196116975#0" to="5672951#0" type="bike_bicycle"/>
    <trip id="bike170" depart="506.37" departLane="best" from="5670874#2" to="196116976#7" type="bike_bicycle"/>
    <trip id="bike171" depart="509.35" departLane="best" from="-196117084#1" to="195743336#2" type="bike_bicycle"/>
    <trip id="bike172" depart="512.33" departLane="best" from="22946967#0" to="576438593#2" type="bike_bicycle"/>
    <trip id="bike173" depart="515.31" departLane="best" from="663543997" to="226041032#4" type="bike_bicycle"/>
    <trip id="bike174" depart="518.28" departLane="best" from="496986970#1" to="420890029" type="bike_bicycle"/>
    <trip id="bike175" depart="521.26" departLane="best" from="663543998#1" to="46538375#13" type="bike_bicycle"/>
    <trip id="bike176" depart="524.24" departLane="best" from="648888142#2" to="-499172074#7" type="bike_bicycle"/>
    <trip id="bike177" depart="527.22" departLane="best" from="663543997" to="195743336#0" type="bike_bicycle"/>
    <trip id="bike179" depart="533.18" departLane="best" from="-499172074#4" to="433476262#0" type="bike_bicycle"/>
    <trip id="bike180" depart="536.16" departLane="best" from="541350711#0" to="308322446" type="bike_bicycle"/>
    <trip id="bike181" depart="539.13" departLane="best" from="46583189#1" to="46538371#3" type="bike_bicycle"/>
    <trip id="bike182" depart="542.11" departLane="best" from="330748499" to="496986970#0" type="bike_bicycle"/>
    <trip id="bike183" depart="545.09" departLane="best" from="196116976#5" to="5670139" type="bike_bicycle"/>
    <trip id="bike184" depart="548.07" departLane="best" from="-195743152#0" to="618990022#6" type="bike_bicycle"/>
    <trip id="bike186" depart="554.03" departLane="best" from="5669664#1" to="505582406#1" type="bike_bicycle"/>
    <trip id="bike187" depart="557.01" departLane="best" from="308322448#1" to="-497258109" type="bike_bicycle"/>
    <trip id="bike188" depart="559.99" departLane="best" from="497258108#1" to="308322447#4" type="bike_bicycle"/>
    <trip id="bike189" depart="562.96" departLane="best" from="22898530#2" to="570158316" type="bike_bicycle"/>
    <trip id="bike190" depart="565.94" departLane="best" from="505582406#0" to="22898530#4" type="bike_bicycle"/>
    <trip id="bike191" depart="568.92" departLane="best" from="22898530#0" to="420899373" type="bike_bicycle"/>
    <trip id="bike192" depart="571.90" departLane="best" from="382740985#3" to="22898530#3" type="bike_bicycle"/>
    <trip id="bike193" depart="574.88" departLane="best" from="-555303393" to="420905130#2" type="bike_bicycle"/>
    <trip id="bike194" depart="577.86" departLane="best" from="648888142#2" to="541350711#0" type="bike_bicycle"/>
    <trip id="bike195" depart="580.84" departLane="best" from="618990022#13" to="499172074#0" type="bike_bicycle"/>
    <trip id="bike197" depart="586.79" departLane="best" from="-195743152#0" to="22898530#2" type="bike_bicycle"/>
    <trip id="bike198" depart="589.77" departLane="best" from="420890028" to="496986970#1" type="bike_bicycle"/>
    <trip id="bike199" depart="592.75" departLane="best" from="496989355#3" to="433476262#6" type="bike_bicycle"/>
    <trip id="bike200" depart="595.73" departLane="best" from="420899372" to="196116976#5" type="bike_bicycle"/>
    <trip id="bike201" depart="598.71" departLane="best" from="433476262#1" to="618990022#11" type="bike_bicycle"/>
    <trip id="bike202" depart="601.69" departLane="best" from="5670874#2" to="186202420#0" type="bike_bicycle"/>
    <trip id="bike203" depart="604.66" departLane="best" from="-499172074#12" to="46538371#4" type="bike_bicycle"/>
    <trip id="bike204" depart="607.64" departLane="best" from="496986969#1" to="308322448#1" type="bike_bicycle"/>
    <trip id="bike206" depart="613.60" departLane="best" from="497258109" to="196116976#7" type="bike_bicycle"/>
    <trip id="bike207" depart="616.58" departLane="best" from="186202420#1" to="-226041032#4" type="bike_bicycle"/>
    <trip id="bike208" depart="619.56" departLane="best" from="196116976#1" to="433476262#7" type="bike_bicycle"/>
    <trip id="bike210" depart="625.52" departLane="best" from="420890025" to="499172074#12" type="bike_bicycle"/>
    <trip id="bike211" depart="628.49" departLane="best" from="186202420#0" to="5669664#0" type="bike_bicycle"/>
    <trip id="bike212" depart="631.47" departLane="best" from="433476262#5" to="196117084#0" type="bike_bicycle"/>
    <trip id="bike213" depart="634.45" departLane="best" from="496989355#3" to="-196116988#0" type="bike_bicycle"/>
    <trip id="bike215" depart="640.41" departLane="best" from="-499172074#4" to="422298615#1" type="bike_bicycle"/>
    <trip id="bike217" depart="646.37" departLane="best" from="458180198#0" to="-477823038" type="bike_bicycle"/>
    <trip id="bike218" depart="649.34" departLane="best" from="196116976#3" to="570158316" type="bike_bicycle"/>
    <trip id="bike220" depart="655.30" departLane="best" from="497258108#1" to="663543998#4" type="bike_bicycle"/>
    <trip id="bike222" depart="661.26" departLane="best" from="618990022#11" to="499172074#0" type="bike_bicycle"/>
    <trip id="bike223" depart="664.24" departLane="best" from="505582406#0" to="460065822#0" type="bike_bicycle"/>
    <trip id="bike225" depart="670.19" departLane="best" from="618990022#12" to="5670253#1" type="bike_bicycle"/>
    <trip id="bike227" depart="676.15" departLane="best" from="196116976#3" to="499172074#14" type="bike_bicycle"/>
    <trip id="bike228" depart="679.13" departLane="best" from="5670253#1" to="46538371#5" type="bike_bicycle"/>
    <trip id="bike229" depart="682.11" departLane="best" from="496986969#0" to="226041032#3" type="bike_bicycle"/>
    <trip id="bike230" depart="685.09" departLane="best" from="-499172074#11" to="22898530#0" type="bike_bicycle"/>
    <trip id="bike231" depart="688.07" departLane="best" from="198924778#0" to="308322447#1" type="bike_bicycle"/>
    <trip id="bike232" depart="691.05" departLane="best" from="458672836" to="-5670874#0" type="bike_bicycle"/>
    <trip id="bike233" depart="694.02" departLane="best" from="196116975#4" to="555303393" type="bike_bicycle"/>
    <trip id="bike234" depart="697.00" departLane="best" from="499172074#3" to="-496986969#1" type="bike_bicycle"/>
    <trip id="bike235" depart="699.98" departLane="best" from="420890023" to="46538375#13" type="bike_bicycle"/>
    <trip id="bike236" depart="702.96" departLane="best" from="420890025" to="196116976#1" type="bike_bicycle"/>
    <trip id="bike237" depart="705.94" departLane="best" from="420890026" to="618990022#12" type="bike_bicycle"/>
    <trip id="bike238" depart="708.92" departLane="best" from="46538375#0" to="5669664#0" type="bike_bicycle"/>
    <trip id="bike240" depart="714.87" departLane="best" from="324118558" to="-196116988#0" type="bike_bicycle"/>
    <trip id="bike241" depart="717.85" departLane="best" from="308322447#3" to="5670348#1" type="bike_bicycle"/>
    <trip id="bike243" depart="723.81" departLane="best" from="420890026" to="5670253#1" type="bike_bicycle"/>
    <trip id="bike244" depart="726.79" departLane="best" from="460065820" to="497258108#1" type="bike_bicycle"/>
    <trip id="bike245" depart="729.77" departLane="best" from="195743342#0" to="196116976#6" type="bike_bicycle"/>
    <trip id="bike246" depart="732.75" departLane="best" from="420890029" to="-226041032#4" type="bike_bicycle"/>
    <trip id="bike247" depart="735.73" departLane="best" from="22946967#1" to="541350711#0" type="bike_bicycle"/>
    <trip id="bike248" depart="738.70" departLane="best" from="420890023" to="125480074" type="bike_bicycle"/>
    <trip id="bike249" depart="741.68" departLane="best" from="433476262#0" to="-5670253#0" type="bike_bicycle"/>
    <trip id="bike250" depart="744.66" departLane="best" from="477823038" to="-226041032#4" type="bike_bicycle"/>
    <trip id="bike251" depart="747.64" departLane="best" from="330748499" to="496986969#0" type="bike_bicycle"/>
    <trip id="bike252" depart="750.62" departLane="best" from="-226041032#1" to="499172074#14" type="bike_bicycle"/>
    <trip id="bike253" depart="753.60" departLane="best" from="-5670139" to="433476262#6" type="bike_bicycle"/>
    <trip id="bike254" depart="756.58" departLane="best" from="-496986969#0" to="420890023" type="bike_bicycle"/>
    <trip id="bike255" depart="759.55" departLane="best" from="195743342#0" to="308322447#3" type="bike_bicycle"/>
    <trip id="bike256" depart="762.53" departLane="best" from="5670253#0" to="420890023" type="bike_bicycle"/>
    <trip id="bike258" depart="768.49" departLane="best" from="196116976#5" to="-499172074#1" type="bike_bicycle"/>
    <trip id="bike259" depart="771.47" departLane="best" from="-196117084#1" to="46538375#13" type="bike_bicycle"/>
    <trip id="bike260" depart="774.45" departLane="best" from="663543998#4" to="324118556#1" type="bike_bicycle"/>
    <trip id="bike261" depart="777.43" departLane="best" from="496989355#1" to="5670874#1" type="bike_bicycle"/>
    <trip id="bike262" depart="780.40" departLane="best" from="496989355#1" to="5670348#1" type="bike_bicycle"/>
    <trip id="bike263" depart="783.38" departLane="best" from="648888157#0" to="196116976#0" type="bike_bicycle"/>
    <trip id="bike264" depart="786.36" departLane="best" from="-196117084#1" to="-5672752#0" type="bike_bicycle"/>
    <trip id="bike265" depart="789.34" departLane="best" from="-555303393" to="505582406#0" type="bike_bicycle"/>
    <trip id="bike266" depart="792.32" departLane="best" from="46525065#0" to="196116976#5" type="bike_bicycle"/>
    <trip id="bike268" depart="798.28" departLane="best" from="-5670874#2" to="497258109" type="bike_bicycle"/>
    <trip id="bike271" depart="807.21" departLane="best" from="-499172074#4" to="-226041032#4" type="bike_bicycle"/>
    <trip id="bike272" depart="810.19" departLane="best" from="22898530#0" to="541350711#0" type="bike_bicycle"/>
    <trip id="bike273" depart="813.17" departLane="best" from="648888157#2" to="420890028" type="bike_bicycle"/>
    <trip id="bike274" depart="816.15" departLane="best" from="499172074#9" to="-499172074#0" type="bike_bicycle"/>
    <trip id="bike275" depart="819.13" departLane="best" from="499172074#12" to="499172074#12" type="bike_bicycle"/>
    <trip id="bike276" depart="822.11" departLane="best" from="-499172074#20" to="5670874#0" type="bike_bicycle"/>
    <trip id="bike278" depart="828.06" departLane="best" from="-505582406#1" to="663543998#3" type="bike_bicycle"/>
    <trip id="bike279" depart="831.04" departLane="best" from="5670873#1" to="324118554#1" type="bike_bicycle"/>
    <trip id="bike280" depart="834.02" departLane="best" from="420890028" to="382740985#6" type="bike_bicycle"/>
    <trip id="bike281" depart="837.00" departLane="best" from="439933933" to="308322448#2" type="bike_bicycle"/>
    <trip id="bike284" depart="845.93" departLane="best" from="496986970#0" to="5672951#1" type="bike_bicycle"/>
    <trip id="bike285" depart="848.91" departLane="best" from="499172074#5" to="433476262#0" type="bike_bicycle"/>
    <trip id="bike287" depart="854.87" departLane="best" from="198924778#0" to="5672752#0" type="bike_bicycle"/>
    <trip id="bike288" depart="857.85" departLane="best" from="458672836" to="439933933" type="bike_bicycle"/>
    <trip id="bike290" depart="863.81" departLane="best" from="196117092" to="570158316" type="bike_bicycle"/>
    <trip id="bike291" depart="866.79" departLane="best" from="569345537#0" to="-499172074#10" type="bike_bicycle"/>
    <trip id="bike292" depart="869.76" departLane="best" from="618990022#0" to="196117084#0" type="bike_bicycle"/>
    <trip id="bike293" depart="872.74" departLane="best" from="422298615#4" to="497258109" type="bike_bicycle"/>
    <trip id="bike294" depart="875.72" departLane="best" from="324118556#1" to="-226041032#4" type="bike_bicycle"/>
    <trip id="bike296" depart="881.68" departLane="best" from="195743342#0" to="5671574#1" type="bike_bicycle"/>
    <trip id="bike297" depart="884.66" departLane="best" from="308322446" to="583505066#2" type="bike_bicycle"/>
    <trip id="bike298" depart="887.64" departLane="best" from="499172074#2" to="226041032#3" type="bike_bicycle"/>
    <trip id="bike301" depart="896.57" departLane="best" from="433476262#4" to="5670348#1" type="bike_bicycle"/>
    <trip id="bike302" depart="899.55" departLane="best" from="499172074#12" to="499172074#2" type="bike_bicycle"/>
    <trip id="bike303" depart="902.53" departLane="best" from="433476262#5" to="5671574#1" type="bike_bicycle"/>
    <trip id="bike304" depart="905.51" departLane="best" from="-499172074#2" to="196116976#6" type="bike_bicycle"/>
    <trip id="bike306" depart="911.47" departLane="best" from="46538371#4" to="433476262#7" type="bike_bicycle"/>
    <trip id="bike307" depart="914.44" departLane="best" from="458642436" to="422298615#1" type="bike_bicycle"/>
    <trip id="bike309" depart="920.40" departLane="best" from="499172074#3" to="226041032#0" type="bike_bicycle"/>
    <trip id="bike310" depart="923.38" departLane="best" from="196116976#5" to="-505582406#0" type="bike_bicycle"/>
    <trip id="bike311" depart="926.36" departLane="best" from="186202420#0" to="-505582406#0" type="bike_bicycle"/>
    <trip id="bike313" depart="932.32" departLane="best" from="-570158316" to="196116976#5" type="bike_bicycle"/>
    <trip id="bike315" depart="938.27" departLane="best" from="663543998#0" to="46538371#5" type="bike_bicycle"/>
    <trip id="bike316" depart="941.25" departLane="best" from="198924778#2" to="-499172074#13" type="bike_bicycle"/>
    <trip id="bike317" depart="944.23" departLane="best" from="186202420#0" to="196116976#7" type="bike_bicycle"/>
    <trip id="bike318" depart="947.21" departLane="best" from="-570158316" to="-196117083" type="bike_bicycle"/>
    <trip id="bike319" depart="950.19" departLane="best" from="458672836" to="226041032#3" type="bike_bicycle"/>
    <trip id="bike320" depart="953.17" departLane="best" from="663543998#0" to="46538375#9" type="bike_bicycle"/>