<?xml version="1.0" encoding="UTF-8"?>

<!-- generated on 03/18/19 00:26:04 by Eclipse SUMO netconvert Version 1.0.1
<configuration xmlns:xsi="http://www.w3.org/2001/XMLSchema-instance" xsi:noNamespaceSchemaLocation="http://sumo.dlr.de/xsd/netconvertConfiguration.xsd">

    <input>
        <type-files value="C:\Users\rahul\Sumo\data\typemap\osmNetconvert.typ.xml,C:\Users\rahul\Sumo\data\typemap\osmNetconvertUrbanDe.typ.xml,C:\Users\rahul\Sumo\data\typemap\osmNetconvertPedestrians.typ.xml,C:\Users\rahul\Sumo\data\typemap\osmNetconvertBicycle.typ.xml"/>
        <osm-files value="C:\Users\rahul\Sumo\tools\2019-03-18-00-26-01\osm_bbox.osm.xml"/>
    </input>

    <output>
        <output-file value="C:\Users\rahul\Sumo\tools\2019-03-18-00-26-01\osm.net.xml"/>
        <output.street-names value="true"/>
        <output.original-names value="true"/>
    </output>

    <projection>
        <proj.utm value="true"/>
    </projection>

    <processing>
        <geometry.remove value="true"/>
        <roundabouts.guess value="true"/>
    </processing>

    <tls_building>
        <tls.discard-simple value="true"/>
        <tls.join value="true"/>
        <tls.guess-signals value="true"/>
        <tls.default-type value="actuated"/>
    </tls_building>

    <ramp_guessing>
        <ramps.guess value="true"/>
    </ramp_guessing>

    <junctions>
        <junctions.join value="true"/>
        <junctions.corner-detail value="5"/>
    </junctions>

    <pedestrian>
        <crossings.guess value="true"/>
    </pedestrian>

    <report>
        <verbose value="true"/>
    </report>

</configuration>
-->

<net version="1.0" junctionCornerDetail="5" walkingareas="true" limitTurnSpeed="5.50" xmlns:xsi="http://www.w3.org/2001/XMLSchema-instance" xsi:noNamespaceSchemaLocation="http://sumo.dlr.de/xsd/net_file.xsd">

    <location netOffset="-584325.77,-4508126.03" convBoundary="0.00,0.00,3203.85,8199.33" origBoundary="-74.001559,40.719744,-73.962986,40.793354" projParameter="+proj=utm +zone=18 +ellps=WGS84 +datum=WGS84 +units=m +no_defs"/>

    <type id="cycleway.lane" allow="bicycle" bikeLaneWidth="1.00"/>
    <type id="cycleway.lane|highway.primary" priority="9" numLanes="2" speed="13.89" disallow="tram rail_urban rail rail_electric pedestrian ship" oneway="0" sidewalkWidth="3.00" bikeLaneWidth="1.00"/>
    <type id="cycleway.lane|highway.secondary" priority="7" numLanes="2" speed="13.89" disallow="tram rail_urban rail rail_electric pedestrian ship" oneway="0" sidewalkWidth="3.00" bikeLaneWidth="1.00"/>
    <type id="cycleway.lane|highway.unclassified" priority="5" numLanes="1" speed="13.89" disallow="tram rail_urban rail rail_electric pedestrian ship" oneway="0" sidewalkWidth="2.00" bikeLaneWidth="1.00"/>
    <type id="cycleway.opposite_lane" allow="bicycle" bikeLaneWidth="1.00"/>
    <type id="cycleway.opposite_track" allow="bicycle" bikeLaneWidth="1.50"/>
    <type id="cycleway.track" allow="bicycle" bikeLaneWidth="1.50"/>
    <type id="highway.bridleway" priority="1" numLanes="1" speed="2.78" allow="pedestrian" oneway="1" width="2.00"/>
    <type id="highway.bus_guideway" priority="1" numLanes="1" speed="13.89" allow="bus" oneway="1"/>
    <type id="highway.cycleway" priority="1" numLanes="1" speed="8.33" allow="bicycle" oneway="0" width="1.00"/>
    <type id="highway.footway" priority="1" numLanes="1" speed="2.78" allow="pedestrian" oneway="1" width="2.00"/>
    <type id="highway.ford" priority="1" numLanes="1" speed="2.78" allow="army" oneway="0"/>
    <type id="highway.living_street" priority="3" numLanes="1" speed="2.78" disallow="tram rail_urban rail rail_electric ship" oneway="0"/>
    <type id="highway.motorway" priority="13" numLanes="2" speed="27.78" allow="private emergency authority army vip passenger hov taxi bus coach delivery truck trailer motorcycle evehicle custom1 custom2" oneway="1"/>
    <type id="highway.motorway_link" priority="12" numLanes="1" speed="16.67" allow="private emergency authority army vip passenger hov taxi bus coach delivery truck trailer motorcycle evehicle custom1 custom2" oneway="1"/>
    <type id="highway.path" priority="1" numLanes="1" speed="2.78" allow="bicycle pedestrian" oneway="1" width="2.00"/>
    <type id="highway.pedestrian" priority="1" numLanes="1" speed="2.78" allow="pedestrian" oneway="1" width="2.00"/>
    <type id="highway.primary" priority="9" numLanes="2" speed="13.89" disallow="tram rail_urban rail rail_electric pedestrian ship" oneway="0" sidewalkWidth="3.00"/>
    <type id="highway.primary_link" priority="8" numLanes="1" speed="13.89" disallow="tram rail_urban rail rail_electric pedestrian ship" oneway="0" sidewalkWidth="3.00"/>
    <type id="highway.raceway" priority="14" numLanes="2" speed="83.33" allow="vip" oneway="0"/>
    <type id="highway.residential" priority="4" numLanes="1" speed="13.89" disallow="tram rail_urban rail rail_electric pedestrian ship" oneway="0" sidewalkWidth="2.00"/>
    <type id="highway.secondary" priority="7" numLanes="2" speed="13.89" disallow="tram rail_urban rail rail_electric pedestrian ship" oneway="0" sidewalkWidth="3.00"/>
    <type id="highway.secondary_link" priority="6" numLanes="1" speed="13.89" disallow="tram rail_urban rail rail_electric pedestrian ship" oneway="0" sidewalkWidth="3.00"/>
    <type id="highway.service" priority="2" numLanes="1" speed="5.56" allow="delivery bicycle pedestrian" oneway="0"/>
    <type id="highway.stairs" priority="1" numLanes="1" speed="1.39" allow="pedestrian" oneway="1" width="2.00"/>
    <type id="highway.step" priority="1" numLanes="1" speed="1.39" allow="pedestrian" oneway="1" width="2.00"/>
    <type id="highway.steps" priority="1" numLanes="1" speed="1.39" allow="pedestrian" oneway="1" width="2.00"/>
    <type id="highway.tertiary" priority="6" numLanes="1" speed="13.89" disallow="tram rail_urban rail rail_electric pedestrian ship" oneway="0" sidewalkWidth="3.00"/>
    <type id="highway.tertiary_link" priority="5" numLanes="1" speed="13.89" disallow="tram rail_urban rail rail_electric pedestrian ship" oneway="0" sidewalkWidth="2.00"/>
    <type id="highway.track" priority="1" numLanes="1" speed="5.56" disallow="tram rail_urban rail rail_electric ship" oneway="0"/>
    <type id="highway.trunk" priority="11" numLanes="2" speed="13.89" disallow="tram rail_urban rail rail_electric bicycle pedestrian ship" oneway="0"/>
    <type id="highway.trunk_link" priority="10" numLanes="1" speed="13.89" disallow="tram rail_urban rail rail_electric bicycle pedestrian ship" oneway="0"/>
    <type id="highway.unclassified" priority="5" numLanes="1" speed="13.89" disallow="tram rail_urban rail rail_electric pedestrian ship" oneway="0" sidewalkWidth="2.00"/>
    <type id="highway.unsurfaced" priority="1" numLanes="1" speed="8.33" disallow="tram rail_urban rail rail_electric ship" oneway="0"/>
    <type id="railway.light_rail" priority="15" numLanes="1" speed="27.78" allow="rail_urban" oneway="1"/>
    <type id="railway.preserved" priority="15" numLanes="1" speed="27.78" allow="rail" oneway="1"/>
    <type id="railway.rail" priority="15" numLanes="1" speed="83.33" allow="rail rail_electric" oneway="1"/>
    <type id="railway.subway" priority="15" numLanes="1" speed="27.78" allow="rail_urban" oneway="1"/>
    <type id="railway.tram" priority="15" numLanes="1" speed="13.89" allow="tram" oneway="1"/>

    <edge id=":1240901063_w0" function="walkingarea">
        <lane id=":1240901063_w0_0" index="0" allow="pedestrian" speed="1.00" length="4.04" width="2.00" shape="2382.57,5373.81 2384.30,5372.80 2384.86,5370.79 2383.91,5369.03 2379.54,5371.30 2380.42,5373.09 2382.28,5373.38 2381.98,5373.08 2381.66,5372.90 2381.30,5372.84 2380.89,5372.90"/>
    </edge>
    <edge id=":1240901113_w0" function="walkingarea">
        <lane id=":1240901113_w0_0" index="0" allow="pedestrian" speed="1.00" length="4.77" width="2.00" shape="2423.06,5421.77 2423.48,5419.82 2423.31,5418.74 2422.29,5417.02 2417.47,5419.20 2417.76,5421.18 2421.94,5421.51 2421.11,5421.28 2420.42,5421.12 2419.73,5421.03 2418.89,5421.05"/>
    </edge>
    <edge id=":1240901210_w0" function="walkingarea">
        <lane id=":1240901210_w0_0" index="0" allow="pedestrian" speed="1.00" length="4.06" width="2.00" shape="2389.46,5419.61 2389.88,5417.66 2388.82,5415.90 2386.90,5415.35 2385.35,5419.89 2387.21,5420.64 2388.90,5419.52 2388.44,5419.51 2388.05,5419.60 2387.73,5419.81 2387.45,5420.15"/>
    </edge>
    <edge id=":1251382427_w0" function="walkingarea">
        <lane id=":1251382427_w0_0" index="0" allow="pedestrian" speed="1.00" length="4.03" width="2.00" shape="2311.33,4963.53 2313.09,4962.57 2313.68,4960.51 2312.70,4958.76 2308.33,4961.19 2309.31,4962.94 2311.07,4963.13 2310.79,4962.85 2310.48,4962.69 2310.13,4962.66 2309.74,4962.74"/>
    </edge>
    <edge id=":1251382481_w0" function="walkingarea">
        <lane id=":1251382481_w0_0" index="0" allow="pedestrian" speed="1.00" length="4.03" width="2.00" shape="2295.02,4972.55 2296.79,4971.62 2297.43,4969.54 2296.46,4967.80 2294.44,4967.21 2292.68,4968.15"/>
    </edge>
    <edge id=":1251382514_w0" function="walkingarea">
        <lane id=":1251382514_w0_0" index="0" allow="pedestrian" speed="1.00" length="4.03" width="2.00" shape="2327.53,4954.53 2329.29,4953.59 2326.93,4949.18 2325.17,4950.12 2324.54,4952.19 2325.51,4953.94 2327.27,4954.13 2326.99,4953.85 2326.68,4953.69 2326.33,4953.66 2325.95,4953.74"/>
    </edge>
    <edge id=":1251382517_w0" function="walkingarea">
        <lane id=":1251382517_w0_0" index="0" allow="pedestrian" speed="1.00" length="4.03" width="2.00" shape="2276.55,4938.24 2278.31,4937.29 2278.92,4935.26 2277.98,4933.50 2273.57,4935.86 2274.51,4937.62 2276.29,4937.83 2276.01,4937.55 2275.69,4937.39 2275.35,4937.35 2274.95,4937.43"/>
    </edge>
    <edge id=":1251382547_w0" function="walkingarea">
        <lane id=":1251382547_w0_0" index="0" allow="pedestrian" speed="1.00" length="4.19" width="2.00" shape="2309.37,4920.66 2311.13,4919.72 2311.80,4917.03 2310.53,4915.49 2308.66,4915.12 2306.90,4916.06 2306.39,4918.29 2307.33,4920.05 2309.11,4920.26 2308.82,4919.98 2308.51,4919.82 2308.16,4919.78 2307.77,4919.86"/>
    </edge>
    <edge id=":1283224985_w0" function="walkingarea">
        <lane id=":1283224985_w0_0" index="0" allow="pedestrian" speed="1.00" length="4.37" width="2.00" shape="2185.87,5303.84 2185.50,5301.88 2181.14,5301.15 2180.48,5303.04 2180.71,5304.46 2181.94,5306.03 2184.94,5304.06 2184.27,5304.29 2183.74,5304.58 2183.26,5304.94 2182.70,5305.42"/>
    </edge>
    <edge id=":1283225008_0" function="internal">
        <lane id=":1283225008_0_0" index="0" allow="bicycle" speed="8.33" length="4.99" width="1.00" shape="2361.03,5108.64 2363.48,5112.99"/>
    </edge>
    <edge id=":1283225016_w0" function="walkingarea">
        <lane id=":1283225016_w0_0" index="0" allow="pedestrian" speed="1.00" length="4.07" width="2.00" shape="1975.61,5273.41 1977.60,5273.18 1978.59,5270.28 1977.43,5268.65 1973.51,5270.33 1973.98,5272.28 1975.52,5272.97 1975.35,5272.62 1975.12,5272.38 1974.81,5272.25 1974.43,5272.21"/>
    </edge>
    <edge id=":1283225019_w0" function="walkingarea">
        <lane id=":1283225019_w0_0" index="0" allow="pedestrian" speed="1.00" length="4.19" width="2.00" shape="2160.39,5333.71 2162.14,5332.75 2162.36,5329.24 2160.52,5328.45 2158.80,5328.84 2157.48,5330.35 2159.91,5332.89 2159.53,5332.30 2159.16,5331.85 2158.74,5331.44 2158.20,5330.97"/>
    </edge>
    <edge id=":1283225030_0" function="internal">
        <lane id=":1283225030_0_0" index="0" allow="bicycle" speed="8.33" length="5.04" width="1.00" shape="1974.99,5295.32 1979.88,5294.08"/>
    </edge>
    <edge id=":1283225030_c0" function="crossing" crossingEdges="583505066#1">
        <lane id=":1283225030_c0_0" index="0" allow="pedestrian" speed="1.00" length="1.00" width="4.00" shape="1977.82,5294.00 1978.02,5294.98"/>
    </edge>
    <edge id=":1283225030_w0" function="walkingarea">
        <lane id=":1283225030_w0_0" index="0" allow="pedestrian" speed="1.00" length="1.62" width="4.00" shape="1977.01,5296.88 1978.93,5296.32 1979.98,5294.57 1976.07,5295.39"/>
    </edge>
    <edge id=":1283225030_w1" function="walkingarea">
        <lane id=":1283225030_w1_0" index="0" allow="pedestrian" speed="1.00" length="1.60" width="4.00" shape="1975.86,5294.41 1979.78,5293.59 1977.99,5292.43 1976.03,5292.81"/>
    </edge>
    <edge id=":1283225050_w0" function="walkingarea">
        <lane id=":1283225050_w0_0" index="0" allow="pedestrian" speed="1.00" length="3.99" width="2.00" shape="2286.96,5395.66 2285.60,5394.20 2284.46,5393.73 2282.46,5393.79 2282.30,5397.62 2283.99,5398.69 2286.29,5396.26 2285.76,5396.69 2285.32,5397.04 2284.92,5397.43 2284.49,5397.94"/>
    </edge>
    <edge id=":1283225076_w0" function="walkingarea">
        <lane id=":1283225076_w0_0" index="0" allow="pedestrian" speed="1.00" length="1.42" width="2.00" shape="2316.93,5275.81 2317.54,5273.90 2316.52,5273.58 2315.28,5275.15 2316.56,5275.70 2316.28,5275.64 2316.05,5275.58 2315.83,5275.50 2315.59,5275.37"/>
    </edge>
    <edge id=":1283225127_w0" function="walkingarea">
        <lane id=":1283225127_w0_0" index="0" allow="pedestrian" speed="1.00" length="4.13" width="2.00" shape="2315.31,5157.14 2314.09,5155.55 2311.46,5155.21 2310.15,5156.72 2310.10,5158.62 2311.32,5160.21"/>
    </edge>
    <edge id=":1283225129_w0" function="walkingarea">
        <lane id=":1283225129_w0_0" index="0" allow="pedestrian" speed="1.00" length="4.49" width="2.00" shape="2092.75,5248.85 2094.53,5247.94 2094.55,5243.59 2092.60,5243.13 2091.28,5243.46 2089.76,5244.77 2092.24,5247.90 2091.83,5247.22 2091.44,5246.68 2091.02,5246.18 2090.48,5245.58"/>
    </edge>
    <edge id=":1283225134_w0" function="walkingarea">
        <lane id=":1283225134_w0_0" index="0" allow="pedestrian" speed="1.00" length="0.10" width="2.00" shape="2308.24,5253.71 2306.24,5253.56 2306.24,5253.62 2308.24,5253.65"/>
    </edge>
    <edge id=":1283225140_w0" function="walkingarea">
        <lane id=":1283225140_w0_0" index="0" allow="pedestrian" speed="1.00" length="4.23" width="2.00" shape="2106.91,5293.79 2108.39,5292.44 2106.38,5288.94 2104.39,5289.17 2103.47,5293.28 2105.31,5294.07 2106.62,5293.55 2106.32,5293.43 2106.02,5293.42 2105.74,5293.53 2105.50,5293.74"/>
    </edge>
    <edge id=":1283225159_w0" function="walkingarea">
        <lane id=":1283225159_w0_0" index="0" allow="pedestrian" speed="1.00" length="3.73" width="2.00" shape="2273.24,5071.26 2275.22,5070.96 2276.27,5068.63 2275.17,5066.96 2272.68,5066.95 2271.56,5068.60 2273.13,5070.58 2272.99,5070.07 2272.80,5069.68 2272.52,5069.34 2272.12,5069.00"/>
    </edge>
    <edge id=":1283225179_w0" function="walkingarea">
        <lane id=":1283225179_w0_0" index="0" allow="pedestrian" speed="1.00" length="4.22" width="2.00" shape="1888.98,5293.27 1889.96,5291.53 1889.78,5289.81 1888.46,5288.30 1885.23,5289.48 1884.72,5291.42 1888.11,5292.78 1887.47,5292.42 1886.93,5292.14 1886.37,5291.91 1885.67,5291.68"/>
    </edge>
    <edge id=":1283225194_w0" function="walkingarea">
        <lane id=":1283225194_w0_0" index="0" allow="pedestrian" speed="1.00" length="4.82" width="2.00" shape="2319.88,5299.56 2318.10,5298.66 2314.38,5302.44 2315.63,5304.00 2316.55,5304.54 2318.53,5304.87 2319.39,5300.62 2319.09,5301.43 2318.92,5302.12 2318.81,5302.84 2318.70,5303.71"/>
    </edge>
    <edge id=":1283225198_w0" function="walkingarea">
        <lane id=":1283225198_w0_0" index="0" allow="pedestrian" speed="1.00" length="0.10" width="2.00" shape="2314.41,5304.97 2313.17,5303.41 2313.22,5303.37 2314.36,5305.01"/>
    </edge>
    <edge id=":1283225204_w0" function="walkingarea">
        <lane id=":1283225204_w0_0" index="0" allow="pedestrian" speed="1.00" length="0.10" width="2.00" shape="2311.42,5307.07 2310.27,5305.43 2310.43,5305.34 2311.27,5307.15 2311.39,5307.09 2311.36,5307.10 2311.34,5307.12 2311.32,5307.13 2311.30,5307.14"/>
    </edge>
    <edge id=":1283225219_w0" function="walkingarea">
        <lane id=":1283225219_w0_0" index="0" allow="pedestrian" speed="1.00" length="3.36" width="2.00" shape="2311.17,5307.20 2310.33,5305.38 2309.47,5304.59 2307.51,5304.96 2307.27,5307.90 2308.77,5309.22 2310.57,5307.49 2310.15,5307.75 2309.83,5308.01 2309.54,5308.32 2309.21,5308.71"/>
    </edge>
    <edge id=":1283225223_w0" function="walkingarea">
        <lane id=":1283225223_w0_0" index="0" allow="pedestrian" speed="1.00" length="3.85" width="2.00" shape="2012.06,5225.88 2012.54,5223.94 2011.88,5222.23 2009.95,5221.70 2008.55,5226.40 2010.45,5227.02 2011.63,5225.82 2011.28,5225.86 2011.01,5226.01 2010.79,5226.25 2010.61,5226.59"/>
    </edge>
    <edge id=":1283225224_w0" function="walkingarea">
        <lane id=":1283225224_w0_0" index="0" allow="pedestrian" speed="1.00" length="4.15" width="2.00" shape="2064.13,5468.99 2065.98,5468.22 2067.06,5466.01 2066.16,5464.22 2064.51,5463.42 2062.55,5463.83 2063.69,5467.93 2063.38,5467.13 2063.16,5466.47 2062.98,5465.79 2062.79,5464.96"/>
    </edge>
    <edge id=":1283225226_w0" function="walkingarea">
        <lane id=":1283225226_w0_0" index="0" allow="pedestrian" speed="1.00" length="3.96" width="2.00" shape="1909.77,5411.90 1908.69,5410.22 1906.16,5409.94 1904.86,5411.46 1905.12,5413.66 1906.75,5414.82 1909.01,5412.39 1908.47,5412.78 1908.05,5413.14 1907.68,5413.55 1907.28,5414.09"/>
    </edge>
    <edge id=":1283225234_w0" function="walkingarea">
        <lane id=":1283225234_w0_0" index="0" allow="pedestrian" speed="1.00" length="3.97" width="2.00" shape="2021.06,5229.39 2023.06,5229.27 2023.59,5225.05 2021.67,5224.47 2019.77,5225.58 2019.34,5227.54 2020.99,5228.83 2020.86,5228.41 2020.64,5228.09 2020.32,5227.86 2019.89,5227.68"/>
    </edge>
    <edge id=":1283225253_w0" function="walkingarea">
        <lane id=":1283225253_w0_0" index="0" allow="pedestrian" speed="1.00" length="4.04" width="2.00" shape="2038.92,5165.21 2040.71,5164.33 2041.34,5162.20 2040.38,5160.44 2035.99,5162.82 2036.94,5164.58 2038.68,5164.81 2038.41,5164.52 2038.10,5164.36 2037.76,5164.32 2037.37,5164.39"/>
    </edge>
    <edge id=":1283225254_w0" function="walkingarea">
        <lane id=":1283225254_w0_0" index="0" allow="pedestrian" speed="1.00" length="0.10" width="2.00" shape="2097.00,5230.95 2095.01,5230.72 2095.02,5230.65 2096.99,5231.02"/>
    </edge>
    <edge id=":1283225261_0" function="internal">
        <lane id=":1283225261_0_0" index="0" allow="bicycle" speed="8.33" length="5.61" width="1.00" shape="2081.92,5136.11 2082.41,5141.70"/>
    </edge>
    <edge id=":1283225261_c0" function="crossing" crossingEdges="576438593#0">
        <lane id=":1283225261_c0_0" index="0" allow="pedestrian" speed="1.00" length="1.00" width="4.00" shape="2081.63,5138.15 2082.62,5138.05"/>
    </edge>
    <edge id=":1283225261_w0" function="walkingarea">
        <lane id=":1283225261_w0_0" index="0" allow="pedestrian" speed="1.00" length="1.77" width="4.00" shape="2084.84,5138.59 2083.89,5136.83 2082.41,5136.06 2082.83,5140.04"/>
    </edge>
    <edge id=":1283225261_w1" function="walkingarea">
        <lane id=":1283225261_w1_0" index="0" allow="pedestrian" speed="1.00" length="2.51" width="4.00" shape="2081.84,5140.14 2081.42,5136.16 2079.53,5139.20 2080.49,5140.96"/>
    </edge>
    <edge id=":1283225263_w0" function="walkingarea">
        <lane id=":1283225263_w0_0" index="0" allow="pedestrian" speed="1.00" length="0.10" width="2.00" shape="2097.90,5223.00 2095.90,5223.11 2095.91,5222.94 2097.89,5223.17 2097.90,5223.04 2097.90,5223.06 2097.90,5223.09 2097.90,5223.11 2097.90,5223.13"/>
    </edge>
    <edge id=":1283225267_0" function="internal">
        <lane id=":1283225267_0_0" index="0" allow="bicycle" speed="8.33" length="5.18" width="1.00" shape="2015.79,5223.10 2015.09,5224.46 2014.67,5225.43 2014.40,5226.45 2014.12,5227.96"/>
    </edge>
    <edge id=":1283225267_c0" function="crossing" crossingEdges="576438593#1">
        <lane id=":1283225267_c0_0" index="0" allow="pedestrian" speed="1.00" length="1.00" width="4.00" shape="2014.42,5224.64 2015.30,5225.10"/>
    </edge>
    <edge id=":1283225267_w0" function="walkingarea">
        <lane id=":1283225267_w0_0" index="0" allow="pedestrian" speed="1.00" length="1.71" width="4.00" shape="2016.58,5226.94 2017.00,5224.98 2016.24,5223.33 2015.74,5224.28 2015.39,5224.99 2015.15,5225.59 2014.96,5226.22 2014.80,5226.99"/>
    </edge>
    <edge id=":1283225267_w1" function="walkingarea">
        <lane id=":1283225267_w1_0" index="0" allow="pedestrian" speed="1.00" length="1.95" width="4.00" shape="2015.35,5222.87 2012.74,5223.99 2012.25,5225.93 2013.83,5226.76 2014.00,5225.94 2014.19,5225.27 2014.45,5224.63 2014.83,5223.87"/>
    </edge>
    <edge id=":1283225271_w0" function="walkingarea">
        <lane id=":1283225271_w0_0" index="0" allow="pedestrian" speed="1.00" length="4.31" width="2.00" shape="2304.89,5166.31 2306.89,5166.25 2308.01,5162.76 2306.79,5161.17 2302.60,5163.71 2303.52,5165.49 2304.83,5165.94 2304.68,5165.66 2304.46,5165.46 2304.18,5165.36 2303.86,5165.37"/>
    </edge>
    <edge id=":1283225275_w0" function="walkingarea">
        <lane id=":1283225275_w0_0" index="0" allow="pedestrian" speed="1.00" length="4.18" width="2.00" shape="1967.98,5382.16 1968.61,5380.26 1967.95,5378.51 1966.23,5377.48 1964.18,5378.01 1962.99,5379.62 1963.70,5381.98 1965.47,5382.91 1967.41,5381.99 1966.91,5381.92 1966.49,5381.95 1966.12,5382.11 1965.78,5382.42"/>
    </edge>
    <edge id=":1283225279_w0" function="walkingarea">
        <lane id=":1283225279_w0_0" index="0" allow="pedestrian" speed="1.00" length="4.05" width="2.00" shape="2089.06,5196.68 2090.88,5195.85 2090.25,5192.21 2088.31,5191.72 2086.03,5194.64 2087.25,5196.23 2088.84,5196.31 2088.58,5196.06 2088.29,5195.92 2087.96,5195.91 2087.61,5196.01"/>
    </edge>
    <edge id=":1283225296_w0" function="walkingarea">
        <lane id=":1283225296_w0_0" index="0" allow="pedestrian" speed="1.00" length="4.50" width="2.00" shape="2076.69,5178.30 2075.59,5176.63 2071.02,5179.39 2072.01,5181.12 2073.17,5181.87 2075.16,5182.06 2076.00,5178.82 2075.59,5179.32 2075.36,5179.84 2075.27,5180.44 2075.22,5181.16"/>
    </edge>
    <edge id=":1283225326_w0" function="walkingarea">
        <lane id=":1283225326_w0_0" index="0" allow="pedestrian" speed="1.00" length="4.12" width="2.00" shape="2072.14,5202.16 2072.91,5200.31 2071.65,5198.18 2069.73,5197.63 2068.49,5202.65 2070.45,5203.06 2071.73,5202.04 2071.36,5202.02 2071.04,5202.12 2070.78,5202.33 2070.58,5202.64"/>
    </edge>
    <edge id=":1420632000_w0" function="walkingarea">
        <lane id=":1420632000_w0_0" index="0" allow="pedestrian" speed="1.00" length="4.19" width="2.00" shape="2082.52,5458.53 2081.77,5456.68 2080.23,5455.75 2078.24,5455.95 2077.11,5458.76 2078.00,5460.55"/>
    </edge>
    <edge id=":1420632014_w0" function="walkingarea">
        <lane id=":1420632014_w0_0" index="0" allow="pedestrian" speed="1.00" length="4.23" width="2.00" shape="1985.96,5317.80 1987.84,5317.11 1988.94,5314.14 1987.55,5312.70 1985.84,5312.37 1984.03,5313.21"/>
    </edge>
    <edge id=":1420632706_w0" function="walkingarea">
        <lane id=":1420632706_w0_0" index="0" allow="pedestrian" speed="1.00" length="4.18" width="2.00" shape="1862.66,5376.16 1863.95,5374.64 1860.70,5371.29 1859.10,5372.49 1859.07,5375.73 1860.90,5376.56 1862.31,5375.93 1861.98,5375.82 1861.66,5375.83 1861.37,5375.96 1861.11,5376.20"/>
    </edge>
    <edge id=":1420632727_0" function="internal">
        <lane id=":1420632727_0_0" index="0" allow="bicycle" speed="8.94" length="4.96" width="1.00" shape="1760.50,5480.47 1761.73,5475.66"/>
    </edge>
    <edge id=":1420632733_w0" function="walkingarea">
        <lane id=":1420632733_w0_0" index="0" allow="pedestrian" speed="1.00" length="4.06" width="2.00" shape="1845.05,5355.21 1846.51,5353.84 1844.77,5350.25 1842.83,5350.72 1841.68,5352.29 1841.84,5354.29 1844.53,5354.71 1844.08,5354.40 1843.64,5354.24 1843.16,5354.20 1842.57,5354.23"/>
    </edge>
    <edge id=":1420632738_w0" function="walkingarea">
        <lane id=":1420632738_w0_0" index="0" allow="pedestrian" speed="1.00" length="4.04" width="2.00" shape="1892.83,5436.16 1891.18,5435.03 1888.14,5436.53 1888.38,5438.52 1889.82,5439.84 1891.82,5439.89 1892.38,5436.86 1892.09,5437.41 1891.94,5437.90 1891.87,5438.42 1891.84,5439.06"/>
    </edge>
    <edge id=":1659429255_w0" function="walkingarea">
        <lane id=":1659429255_w0_0" index="0" allow="pedestrian" speed="1.00" length="4.02" width="2.00" shape="1640.59,5437.39 1642.33,5436.40 1640.10,5432.11 1638.29,5432.95 1637.56,5435.07 1638.54,5436.82 1640.32,5436.99 1640.03,5436.72 1639.71,5436.56 1639.37,5436.53 1638.98,5436.62"/>
    </edge>
    <edge id=":1701856467_0" function="internal">
        <lane id=":1701856467_0_0" index="0" disallow="tram rail_urban rail rail_electric pedestrian ship" speed="11.18" length="2.82" shape="1614.06,5310.51 1613.84,5307.80"/>
        <lane id=":1701856467_0_1" index="1" disallow="tram rail_urban rail rail_electric pedestrian ship" speed="11.18" length="2.82" shape="1617.26,5310.35 1617.02,5307.44"/>
    </edge>
    <edge id=":1701856467_c0" function="crossing" crossingEdges="22898530#3">
        <lane id=":1701856467_c0_0" index="0" allow="pedestrian" speed="1.00" length="6.40" width="4.00" shape="1618.76,5308.27 1612.36,5308.59"/>
    </edge>
    <edge id=":1701856467_w0" function="walkingarea">
        <lane id=":1701856467_w0_0" index="0" allow="pedestrian" speed="1.00" length="2.23" width="4.00" shape="1612.25,5307.97 1609.27,5308.31 1609.47,5310.74 1612.46,5310.59 1612.26,5306.59"/>
    </edge>
    <edge id=":1701856467_w1" function="walkingarea">
        <lane id=":1701856467_w1_0" index="0" allow="pedestrian" speed="1.00" length="2.32" width="4.00" shape="1618.65,5306.27 1618.86,5310.27 1617.86,5310.32 1619.86,5310.21 1618.86,5310.27 1621.85,5310.11 1621.60,5306.93 1618.61,5307.27 1619.61,5307.15 1617.62,5307.38"/>
    </edge>
    <edge id=":1701856471_0" function="internal">
        <lane id=":1701856471_0_0" index="0" disallow="tram rail_urban rail rail_electric pedestrian ship" speed="11.18" length="2.71" shape="1614.18,5314.73 1614.15,5312.14"/>
        <lane id=":1701856471_0_1" index="1" disallow="tram rail_urban rail rail_electric pedestrian ship" speed="11.18" length="2.71" shape="1617.38,5314.81 1617.34,5311.98"/>
    </edge>
    <edge id=":1701856471_c0" function="crossing" crossingEdges="22898530#3">
        <lane id=":1701856471_c0_0" index="0" allow="pedestrian" speed="1.00" length="6.40" width="4.00" shape="1612.65,5314.22 1619.04,5313.89"/>
    </edge>
    <edge id=":1701856471_w0" function="walkingarea">
        <lane id=":1701856471_w0_0" index="0" allow="pedestrian" speed="1.00" length="2.30" width="4.00" shape="1617.95,5314.80 1619.94,5314.90 1618.98,5314.85 1621.98,5314.92 1621.94,5311.74 1618.94,5311.90 1619.94,5311.85 1617.94,5311.95 1618.94,5311.90 1619.14,5315.89"/>
    </edge>
    <edge id=":1701856471_w1" function="walkingarea">
        <lane id=":1701856471_w1_0" index="0" allow="pedestrian" speed="1.00" length="2.16" width="4.00" shape="1612.75,5316.21 1612.55,5312.22 1609.55,5312.37 1609.58,5314.61 1612.58,5314.69"/>
    </edge>
    <edge id=":1792535228_0" function="internal">
        <lane id=":1792535228_0_0" index="0" disallow="tram rail_urban rail rail_electric pedestrian ship" speed="11.18" length="5.91" shape="1655.92,5357.04 1654.70,5358.23 1653.93,5359.11 1653.23,5360.05 1652.20,5361.41"/>
        <lane id=":1792535228_0_1" index="1" disallow="tram rail_urban rail rail_electric pedestrian ship" speed="11.18" length="5.91" shape="1653.72,5354.71 1652.43,5355.97 1651.61,5356.90 1650.86,5357.88 1649.77,5359.32"/>
    </edge>
    <edge id=":1792535228_c0" function="crossing" crossingEdges="186202420#0">
        <lane id=":1792535228_c0_0" index="0" allow="pedestrian" speed="1.00" length="6.40" width="4.00" shape="1651.16,5354.93 1655.56,5359.58"/>
    </edge>
    <edge id=":1792535228_w0" function="walkingarea">
        <lane id=":1792535228_w0_0" index="0" allow="pedestrian" speed="1.00" length="4.33" width="4.00" shape="1653.36,5362.52 1655.73,5364.36 1657.18,5364.66 1659.04,5363.93 1659.08,5360.38 1657.02,5358.20 1656.18,5359.02 1655.58,5359.64 1655.12,5360.19 1654.69,5360.76 1654.17,5361.45"/>
    </edge>
    <edge id=":1792535228_w1" function="walkingarea">
        <lane id=":1792535228_w1_0" index="0" allow="pedestrian" speed="1.00" length="2.92" width="4.00" shape="1652.62,5353.55 1654.91,5353.86 1653.13,5354.77 1649.32,5357.27 1649.92,5356.47 1650.42,5355.82 1650.96,5355.20 1651.65,5354.49"/>
    </edge>
    <edge id=":1792549689_0" function="internal">
        <lane id=":1792549689_0_0" index="0" disallow="tram rail_urban rail rail_electric pedestrian ship" speed="11.18" length="9.88" shape="1576.73,5322.35 1575.99,5330.57"/>
        <lane id=":1792549689_0_1" index="1" disallow="tram rail_urban rail rail_electric pedestrian ship" speed="11.18" length="9.88" shape="1573.92,5323.89 1574.35,5326.54 1573.42,5328.75 1572.72,5330.78 1573.81,5332.91"/>
        <lane id=":1792549689_0_2" index="2" disallow="tram rail_urban rail rail_electric pedestrian ship" speed="11.18" length="9.88" shape="1571.12,5325.42 1571.68,5328.32 1570.89,5330.72 1570.34,5332.93 1571.63,5335.25"/>
        <lane id=":1792549689_0_3" index="3" disallow="tram rail_urban rail rail_electric pedestrian ship" speed="11.18" length="9.88" shape="1568.31,5326.96 1569.01,5330.10 1568.36,5332.69 1567.96,5335.08 1569.45,5337.60"/>
    </edge>
    <edge id=":1792549689_c0" function="crossing" crossingEdges="420890023">
        <lane id=":1792549689_c0_0" index="0" allow="pedestrian" speed="1.00" length="13.80" width="4.00" shape="1567.87,5329.48 1579.97,5322.86"/>
    </edge>
    <edge id=":1792549689_w0" function="walkingarea">