<?xml version="1.0" encoding="UTF-8"?>

<!-- generated on 03/18/19 00:26:06 by Eclipse SUMO duarouter Version 1.0.1
<configuration xmlns:xsi="http://www.w3.org/2001/XMLSchema-instance" xsi:noNamespaceSchemaLocation="http://sumo.dlr.de/xsd/duarouterConfiguration.xsd">

    <input>
        <net-file value="osm.net.xml"/>
        <route-files value="osm.truck.trips.xml"/>
    </input>

    <output>
        <output-file value="osm.truck.rou.xml"/>
        <alternatives-output value="osm.truck.rou.alt.xml"/>
    </output>

    <time>
        <begin value="0"/>
        <end value="3600.0"/>
    </time>

    <report>
        <no-warnings value="true"/>
        <ignore-errors value="true"/>
        <no-step-log value="true"/>
    </report>

</configuration>
-->

<routes xmlns:xsi="http://www.w3.org/2001/XMLSchema-instance" xsi:noNamespaceSchemaLocation="http://sumo.dlr.de/xsd/routes_file.xsd">
    <vType id="truck_truck" vClass="truck"/>
    <vehicle id="truck0" type="truck_truck" depart="0.00" departLane="best">
        <route edges="198924778#2 -5670874#2 -5670874#1 -5670874#0 -5670253#1 -5670253#0 420899372 496986970#0 496986970#1 5672752#0 5672752#1 196117083 505582406#0 505582406#1 196117084#0"/>
    </vehicle>
    <vehicle id="truck1" type="truck_truck" depart="6.85" departLane="best">
        <route edges="569345537#0 569345537#1 569345537#3 569345537#4 541350711#0 541350711#1 497258108#0 497258108#1 420899372 -195743152#0 186202420#0"/>
    </vehicle>
    <vehicle id="truck2" type="truck_truck" depart="13.70" departLane="best">
        <route edges="420890024 420890025 420890029 439933933 663543997 -196117083 -5672752#1 -5672752#0 -496986969#1 -496986969#0 497258109 -497258109"/>
    </vehicle>
    <vehicle id="truck3" type="truck_truck" depart="20.56" departLane="best">
        <route edges="196116975#0 196116975#4 460065822#0 22898530#0 22898530#2 22898530#3 22898530#4 308322448#1 308322448#2 196116976#0 196116976#1 196116976#3 196116976#5 46538371#3 46538371#4 46538371#5"/>
    </vehicle>
    <vehicle id="truck5" type="truck_truck" depart="34.26" departLane="best">
        <route edges="5670253#1 -5670253#1 -5670253#0 420899372 496986970#0 496986970#1 5672752#0 5672752#1 196117083 505582406#0 505582406#1"/>
    </vehicle>
    <vehicle id="truck6" type="truck_truck" depart="41.11" departLane="best">
        <route edges="458180198#0 458180198#1 5672290#1 5670873#0 5670873#1 -5670253#1 -5670253#0 420899372 496986970#0 496986970#1 496989355#0 496989355#1 499172074#5 499172074#9 499172074#11 420890029 439933933 663543997"/>
    </vehicle>
    <vehicle id="truck7" type="truck_truck" depart="47.96" departLane="best">
        <route edges="308322448#1 308322448#2 -5672752#1 -5672752#0 -496986969#1 -496986969#0 497258108#0 497258108#1 5670253#0 5670253#1 46583189#1"/>
    </vehicle>
    <vehicle id="truck8" type="truck_truck" depart="54.81" departLane="best">
        <route edges="-5670253#0 420899372 -195743152#0 439801903 460065821#1 460065822#0 22898530#0 22898530#2 22898530#3"/>
    </vehicle>
    <vehicle id="truck9" type="truck_truck" depart="61.67" departLane="best">
        <route edges="308322447#4 5669664#0 5669664#1 422298615#4 -497258109 496986969#0 496986969#1 5672752#0 5672752#1 196117083 505582406#0 505582406#1 196117084#0"/>
    </vehicle>
    <vehicle id="truck11" type="truck_truck" depart="75.37" departLane="best">
        <route edges="46538375#9 46538375#11 569345537#1 569345537#3 569345537#4 541350711#0 541350711#1 497258108#0 497258108#1"/>
    </vehicle>
    <vehicle id="truck12" type="truck_truck" depart="82.22" departLane="best">
        <route edges="195743342#0 198924778#0 198924778#1 198924778#2 422298615#1 422298615#4 5670139"/>
    </vehicle>
    <vehicle id="truck13" type="truck_truck" depart="89.07" departLane="best">
        <route edges="195743336#1 499172074#0 499172074#1 499172074#2 499172074#3 499172074#5 499172074#9 499172074#11 420890029 439933933 663543997 196117092 420890023"/>
    </vehicle>
    <vehicle id="truck15" type="truck_truck" depart="102.78" departLane="best">
        <route edges="196116975#0 196116975#4 460065822#0 22898530#0 22898530#2 22898530#3 22898530#4 308322448#1 308322448#2 196116976#0 196116976#1 499172074#9 499172074#11 420890029 618990022#4"/>
    </vehicle>
    <vehicle id="truck16" type="truck_truck" depart="109.63" departLane="best">
        <route edges="569345537#0 569345537#1 569345537#3 569345537#4 499172074#1 499172074#2 499172074#3 499172074#5 499172074#9 499172074#11 420890029 439933933 663543997 196117092 308322446 308322448#1"/>
    </vehicle>
    <vehicle id="truck17" type="truck_truck" depart="116.48" departLane="best">
        <route edges="46583189#2 5669664#0 5669664#1 422298615#4 -497258109 496986969#0 496986969#1 496989355#0 496989355#1 496989355#3 382740985#0 46538371#0 46538371#3 420890028"/>
    </vehicle>
    <vehicle id="truck18" type="truck_truck" depart="123.33" departLane="best">
        <route edges="618990022#0 618990022#3 439933933 663543997 196117092 420890023 125480074 460065820 439801903 460065821#1"/>
    </vehicle>
    <vehicle id="truck19" type="truck_truck" depart="130.18" departLane="best">
        <route edges="198924778#0 198924778#1 198924778#2 -5670874#2 -5670874#1 -5670874#0 -5670253#1 -5670253#0 420899372 496986970#0 496986970#1 496989355#0 496989355#1 496989355#3 226041032#0"/>
    </vehicle>
    <vehicle id="truck20" type="truck_truck" depart="137.03" departLane="best">
        <route edges="46525065#0 420890023 125480074 22898530#0"/>
    </vehicle>
    <vehicle id="truck21" type="truck_truck" depart="143.89" departLane="best">
        <route edges="46525065#0 308322446 308322447#1 308322447#2 308322447#3 308322447#4 5669664#0 5669664#1 5672951#0 5672951#1"/>
    </vehicle>
    <vehicle id="truck22" type="truck_truck" depart="150.74" departLane="best">
        <route edges="324118558 196116976#5 46538371#3 420890028 420890024 420890025 420890029 439933933 663543997 505582406#0 505582406#1 196117084#0"/>
    </vehicle>
    <vehicle id="truck23" type="truck_truck" depart="157.59" departLane="best">
        <route edges="663543997 -196117083 196116976#0 196116976#1 196116976#3 324118554#1 382740985#0 382740985#3 46538375#11"/>
    </vehicle>
    <vehicle id="truck24" type="truck_truck" depart="164.44" departLane="best">
        <route edges="-5670253#1 -5670253#0 420899372 496986970#0 496986970#1 496989355#0 496989355#1 499172074#5 499172074#9 499172074#11"/>
    </vehicle>
    <vehicle id="truck25" type="truck_truck" depart="171.29" departLane="best">
        <route edges="5669664#1 422298615#4 -497258109 496986969#0 496986969#1 496989355#0 496989355#1 496989355#3 382740985#0 382740985#3 46538375#11 569345537#1 420905130#0 420905130#2"/>
    </vehicle>
    <vehicle id="truck26" type="truck_truck" depart="178.14" departLane="best">
        <route edges="663543997 -196117083 196116976#0 196116976#1 196116976#3 324118554#1 382740985#0 382740985#3 46538375#11 46538375#13"/>
    </vehicle>
    <vehicle id="truck27" type="truck_truck" depart="185.00" departLane="best">
        <route edges="-196117083 -5672752#1 -5672752#0 -496986969#1 -496986969#0 497258108#0 308322447#3 308322447#4 5669664#0 5669664#1"/>
    </vehicle>
    <vehicle id="truck28" type="truck_truck" depart="191.85" departLane="best">
        <route edges="496989355#0 496989355#1 496989355#3 382740985#0 382740985#3 46538375#11 46538375#13"/>
    </vehicle>
    <vehicle id="truck29" type="truck_truck" depart="198.70" departLane="best">
        <route edges="198924778#0 198924778#1 198924778#2 -5670874#2 -5670874#1 -5670874#0 -5670253#1 -5670253#0 420899372 496986970#0 496986970#1 496989355#0 496989355#1 499172074#5 499172074#9 499172074#11 499172074#12 499172074#13"/>
    </vehicle>
    <vehicle id="truck30" type="truck_truck" depart="205.55" departLane="best">
        <route edges="-5670874#0 -5670253#1 -5670253#0 420899372 -195743152#0 439801903"/>
    </vehicle>
    <vehicle id="truck31" type="truck_truck" depart="212.40" departLane="best">
        <route edges="569345537#0 569345537#1 569345537#3 569345537#4 499172074#1 499172074#2 499172074#3 499172074#5 499172074#9 499172074#11 420890029 439933933 663543997 196117092 420890023 125480074 22898530#0"/>
    </vehicle>
    <vehicle id="truck32" type="truck_truck" depart="219.26" departLane="best">
        <route edges="439801903 460065821#1 460065822#0 22898530#0 22898530#2 22898530#3 22898530#4 308322448#1 308322448#2 196116976#0 196116976#1 196116976#3 196116976#5 196116976#6 196116976#7"/>
    </vehicle>
    <vehicle id="truck33" type="truck_truck" depart="226.11" departLane="best">
        <route edges="618990022#0 618990022#3 439933933 663543997 -196117083 -5672752#1 -5672752#0 -496986969#1 -496986969#0 497258108#0 308322447#3 308322447#4 5669664#0 5669664#1 5672951#0"/>
    </vehicle>
    <vehicle id="truck34" type="truck_truck" depart="232.96" departLane="best">
        <route edges="46538375#0 46538375#6 46538375#9 46538375#11 569345537#1 569345537#3 569345537#4 499172074#1 499172074#2 499172074#3 499172074#5 196116976#3"/>
    </vehicle>
    <vehicle id="truck35" type="truck_truck" depart="239.81" departLane="best">
        <route edges="499172074#9 499172074#11 420890029 618990022#4 196116976#1 196116976#3 324118554#1 382740985#0 382740985#3 46538375#11 46538375#13"/>
    </vehicle>
    <vehicle id="truck36" type="truck_truck" depart="246.66" departLane="best">
        <route edges="-196117084#1 -505582406#1 -505582406#0 -196117083 196116976#0 618990022#6 618990022#7 618990022#8 618990022#9 618990022#10 618990022#11 618990022#12"/>
    </vehicle>
    <vehicle id="truck37" type="truck_truck" depart="253.51" departLane="best">
        <route edges="569345537#0 569345537#1 569345537#3 569345537#4 541350711#0 541350711#1 497258108#0 497258108#1 5670253#0 5670253#1 5670874#0 5670874#1 5670874#2 5671574#0 5671574#1"/>
    </vehicle>
    <vehicle id="truck38" type="truck_truck" depart="260.37" departLane="best">
        <route edges="226041033 324118556#1 420890025 420890029 439933933 663543997 -196117083 -5672752#1 -5672752#0 -496986969#1 -496986969#0 497258108#0 497258108#1 5670253#0 5670253#1 5670874#0 -5670874#0"/>
    </vehicle>
    <vehicle id="truck39" type="truck_truck" depart="267.22" departLane="best">
        <route edges="-5670139 195743336#0 195743336#1 499172074#0 499172074#1 499172074#2 499172074#3 496989355#3 382740985#0 46538371#0 46538371#3 46538371#4 46538371#5"/>
    </vehicle>
    <vehicle id="truck40" type="truck_truck" depart="274.07" departLane="best">
        <route edges="505582406#0 -505582406#0 -196117083 196116976#0 618990022#6 618990022#7 618990022#8 618990022#9 618990022#10 618990022#11 618990022#12 618990022#13 195743336#1 195743336#2"/>
    </vehicle>
    <vehicle id="truck41" type="truck_truck" depart="280.92" departLane="best">
        <route edges="420899373 496986970#0 496986970#1 496989355#0 496989355#1 496989355#3 382740985#0 46538371#0 196116976#6 46538375#9"/>
    </vehicle>
    <vehicle id="truck42" type="truck_truck" depart="287.77" departLane="best">
        <route edges="420890025 420890029 439933933 663543997 505582406#0 505582406#1 196117084#0"/>
    </vehicle>
    <vehicle id="truck43" type="truck_truck" depart="294.62" departLane="best">
        <route edges="663543997 -196117083 196116976#0 196116976#1 499172074#9 499172074#11 499172074#12 499172074#13 499172074#14"/>
    </vehicle>
    <vehicle id="truck44" type="truck_truck" depart="301.48" departLane="best">
        <route edges="420890026 420890028 420890024 324118558 196116976#5 196116976#6 46538375#9 46538375#11 46538375#13"/>
    </vehicle>
    <vehicle id="truck45" type="truck_truck" depart="308.33" departLane="best">
        <route edges="-5670874#2 -5670874#1 -5670874#0 -5670253#1 -5670253#0 420899372 496986970#0 496986970#1 5672752#0 5672752#1 196117083 196117092"/>
    </vehicle>
    <vehicle id="truck46" type="truck_truck" depart="315.18" departLane="best">
        <route edges="196116976#0 196116976#1 499172074#9 499172074#11 420890029 439933933 663543997 505582406#0 505582406#1 196117084#0"/>
    </vehicle>
    <vehicle id="truck47" type="truck_truck" depart="322.03" departLane="best">
        <route edges="196116975#0 196116975#4 460065822#0 22898530#0 22898530#2 22898530#3 22898530#4 308322448#1 308322448#2 196116976#0 618990022#6 618990022#7 618990022#8 618990022#9 618990022#10 618990022#11 618990022#12 618990022#13 195743336#1 195743336#2"/>
    </vehicle>
    <vehicle id="truck48" type="truck_truck" depart="328.88" departLane="best">
        <route edges="618990022#0 618990022#3 439933933 663543997 -196117083 -5672752#1 -5672752#0 -496986969#1 496986969#1"/>
    </vehicle>
    <vehicle id="truck49" type="truck_truck" depart="335.73" departLane="best">
        <route edges="5670253#1 -5670253#1 -5670253#0 420899372 496986970#0 496986970#1 496989355#0 496989355#1 496989355#3 382740985#0 46538371#0 196116976#6 196116976#7"/>
    </vehicle>
    <vehicle id="truck50" type="truck_truck" depart="342.59" departLane="best">
        <route edges="460065821#1 460065822#0 460065820 420899373 -196116988#0 5670253#0 5670253#1 -5670253#1"/>
    </vehicle>
    <vehicle id="truck51" type="truck_truck" depart="349.44" departLane="best">
        <route edges="663543997 -196117083 -5672752#1 -5672752#0 -496986969#1 -496986969#0 497258108#0 497258108#1 5670253#0 5670253#1 5670874#0 5670874#1 5670874#2 5671574#0 5671574#1"/>
    </vehicle>
    <vehicle id="truck52" type="truck_truck" depart="356.29" departLane="best">
        <route edges="5672290#1 5670873#0 5670873#1 -5670253#1 -5670253#0 420899372 496986970#0 496986970#1 496989355#0 496989355#1 496989355#3 382740985#0 46538371#0 196116976#6 196116976#7"/>
    </vehicle>
    <vehicle id="truck53" type="truck_truck" depart="363.14" departLane="best">
        <route edges="420905130#2 46538371#0 46538371#3 420890028 420890024 420890025 420890029 439933933 663543997 505582406#0 505582406#1 196117084#0"/>
    </vehicle>
    <vehicle id="truck54" type="truck_truck" depart="369.99" departLane="best">
        <route edges="324118558 324118554#1 226041032#0 226041032#3 226041032#4 569345537#4 541350711#0 541350711#1 497258108#0 497258108#1 5670253#0 5670253#1 5670874#0 -5670874#0"/>
    </vehicle>
    <vehicle id="truck55" type="truck_truck" depart="376.84" departLane="best">
        <route edges="198924778#0 198924778#1 198924778#2 -5670874#2 -5670874#1 -5670874#0 -5670253#1 -5670253#0 420899372 -195743152#0 439801903 5670348#0 5670348#1"/>
    </vehicle>
    <vehicle id="truck56" type="truck_truck" depart="383.70" departLane="best">
        <route edges="420890026 420890028 420890024 420890025 420890029 439933933 663543997 -196117083 -5672752#1 -5672752#0 -496986969#1 -496986969#0 497258108#0 497258108#1 5670253#0 5670253#1 5670874#0 5670874#1 5670874#2 422298615#1"/>
    </vehicle>
    <vehicle id="truck57" type="truck_truck" depart="390.55" departLane="best">
        <route edges="618990022#13 195743336#1 499172074#0 541350711#0 541350711#1 497258108#0 497258108#1 420899372 -195743152#0 439801903 91383966#1"/>
    </vehicle>
    <vehicle id="truck58" type="truck_truck" depart="397.40" departLane="best">
        <route edges="460065822#0 22898530#0 22898530#2 22898530#3 22898530#4 308322447#1 308322447#2 308322447#3 308322447#4 5669664#0 5669664#1"/>
    </vehicle>
    <vehicle id="truck60" type="truck_truck" depart="411.10" departLane="best">
        <route edges="-5670139 195743336#0 195743336#1 499172074#0 499172074#1 499172074#2 499172074#3 496989355#3 382740985#0 46538371#0 196116976#6 196116976#7"/>
    </vehicle>
    <vehicle id="truck61" type="truck_truck" depart="417.96" departLane="best">
        <route edges="196116976#1 196116976#3 324118554#1 226041032#0 226041032#3 226041032#4 569345537#4 541350711#0 618990022#13 195743336#1 195743336#2"/>
    </vehicle>
    <vehicle id="truck62" type="truck_truck" depart="424.81" departLane="best">
        <route edges="196116975#0 196116975#4 460065822#0 22898530#0 22898530#2 22898530#3 22898530#4 308322447#1 308322447#2 308322447#3 308322447#4 5669664#0"/>
    </vehicle>
    <vehicle id="truck63" type="truck_truck" depart="431.66" departLane="best">
        <route edges="226041033 324118556#1 420890025 420890029 439933933 663543997 -196117083 -5672752#1 -5672752#0 -496986969#1 -496986969#0 497258108#0 497258108#1 5670253#0"/>
    </vehicle>
    <vehicle id="truck64" type="truck_truck" depart="438.51" departLane="best">
        <route edges="-5670139 -497258109 497258108#0 497258108#1 420899372 -195743152#0 439801903 460065821#1"/>
    </vehicle>
    <vehicle id="truck65" type="truck_truck" depart="445.36" departLane="best">
        <route edges="-5670139 -497258109 496986969#0 496986969#1 5672752#0 5672752#1 196117083 505582406#0 505582406#1 196117084#0"/>
    </vehicle>
    <vehicle id="truck66" type="truck_truck" depart="452.21" departLane="best">
        <route edges="569345537#0 569345537#1 569345537#3 569345537#4 541350711#0 541350711#1 497258108#0 308322447#3 308322447#4 5669664#0 5669664#1 5672951#0 5672951#1"/>
    </vehicle>
    <vehicle id="truck67" type="truck_truck" depart="459.07" departLane="best">
        <route edges="308322447#4 5669664#0 5669664#1 422298615#4 -497258109 496986969#0 496986969#1 496989355#0 496989355#1 499172074#5 196116976#3 196116976#5"/>
    </vehicle>
    <vehicle id="truck68" type="truck_truck" depart="465.92" departLane="best">
        <route edges="46538375#0 46538375#6 46538375#9 46538375#11 569345537#1 569345537#3 569345537#4 541350711#0 541350711#1 497258108#0 497258108#1 420899372 -195743152#0 439801903 91383966#1"/>
    </vehicle>
    <vehicle id="truck69" type="truck_truck" depart="472.77" departLane="best">
        <route edges="-5672752#1 -5672752#0 496989355#0 618990022#8 618990022#9 618990022#10 618990022#11 618990022#12 618990022#13 195743336#1 195743336#2"/>
    </vehicle>
    <vehicle id="truck70" type="truck_truck" depart="479.62" departLane="best">
        <route edges="499172074#0 499172074#1 499172074#2 499172074#3 499172074#5 499172074#9 499172074#11 420890029 439933933 663543997 505582406#0 505582406#1 196117084#0"/>
    </vehicle>
    <vehicle id="truck73" type="truck_truck" depart="500.18" departLane="best">
        <route edges="420890025 420890029 439933933 663543997 196117092 420890023 125480074 460065820 420899373 -196116988#0"/>
    </vehicle>
    <vehicle id="truck74" type="truck_truck" depart="507.03" departLane="best">
        <route edges="186202420#0 186202420#1 420899373 496986970#0 496986970#1 496989355#0 618990022#8 618990022#9 618990022#10 618990022#11 618990022#12 618990022#13 195743336#1 195743336#2"/>
    </vehicle>
    <vehicle id="truck75" type="truck_truck" depart="513.88" departLane="best">
        <route edges="226041033 324118556#1 324118558 196116976#5 196116976#6 46538375#9 46538375#11 569345537#1"/>
    </vehicle>
    <vehicle id="truck76" type="truck_truck" depart="520.73" departLane="best">
        <route edges="5669664#1 422298615#4 -497258109 496986969#0 496986969#1 5672752#0"/>
    </vehicle>
    <vehicle id="truck77" type="truck_truck" depart="527.58" departLane="best">
        <route edges="569345537#1 569345537#3 569345537#4 499172074#1 499172074#2 499172074#3 499172074#5 499172074#9 499172074#11 420890029 439933933 663543997 505582406#0 505582406#1 196117084#0"/>
    </vehicle>
    <vehicle id="truck78" type="truck_truck" depart="534.43" departLane="best">
        <route edges="196116976#6 46538375#9 46538375#11 569345537#1 569345537#3 569345537#4 541350711#0 618990022#13 195743336#1"/>
    </vehicle>
    <vehicle id="truck79" type="truck_truck" depart="541.29" departLane="best">
        <route edges="541350711#0 541350711#1 497258108#0 308322447#3 308322447#4 5669664#0 5669664#1 5672951#0 5672951#1"/>
    </vehicle>
    <vehicle id="truck82" type="truck_truck" depart="561.84" departLane="best">
        <route edges="-196117084#1 -505582406#1 -505582406#0 -196117083 -5672752#1 -5672752#0 -496986969#1 -496986969#0 497258109 5670139"/>
    </vehicle>
    <vehicle id="truck83" type="truck_truck" depart="568.69" departLane="best">
        <route edges="22898530#2 22898530#3 22898530#4 308322448#1 308322448#2 196116976#0 618990022#6 618990022#7 618990022#8 618990022#9 618990022#10 618990022#11 618990022#12 618990022#13"/>
    </vehicle>
    <vehicle id="truck84" type="truck_truck" depart="575.55" departLane="best">
        <route edges="5670253#1 -5670253#1 -5670253#0 420899372 496986970#0 496986970#1 5672752#0 5672752#1"/>
    </vehicle>
    <vehicle id="truck85" type="truck_truck" depart="582.40" departLane="best">
        <route edges="196116975#4 460065822#0 460065820 420899373 -196116988#0 5670253#0 5670253#1 5670874#0 5670874#1 5670874#2"/>
    </vehicle>
    <vehicle id="truck86" type="truck_truck" depart="589.25" departLane="best">
        <route edges="420890028 420890024 420890025 420890029 439933933 663543997 -196117083 -5672752#1 -5672752#0 -496986969#1 -496986969#0 497258108#0 308322447#3 308322447#4"/>
    </vehicle>
    <vehicle id="truck87" type="truck_truck" depart="596.10" departLane="best">
        <route edges="5669664#1 422298615#4 -497258109 496986969#0 496986969#1 5672752#0 5672752#1 196117083 196117092"/>
    </vehicle>
    <vehicle id="truck88" type="truck_truck" depart="602.95" departLane="best">
        <route edges="618990022#7 496989355#1 496989355#3 382740985#0 382740985#3 46538375#11 46538375#13"/>
    </vehicle>
    <vehicle id="truck89" type="truck_truck" depart="609.80" departLane="best">
        <route edges="618990022#0 618990022#3 618990022#4 618990022#6 618990022#7 618990022#8 618990022#9 618990022#10 618990022#11 618990022#12 618990022#13 195743336#1 195743336#2"/>
    </vehicle>
    <vehicle id="truck90" type="truck_truck" depart="616.66" departLane="best">
        <route edges="618990022#4 196116976#1 196116976#3 196116976#5 196116976#6 196116976#7"/>
    </vehicle>
    <vehicle id="truck91" type="truck_truck" depart="623.51" departLane="best">
        <route edges="-5670253#1 -5670253#0 420899372 -195743152#0 439801903"/>
    </vehicle>
    <vehicle id="truck92" type="truck_truck" depart="630.36" departLane="best">
        <route edges="46538375#0 46538375#6 46538375#9 46538375#11"/>
    </vehicle>
    <vehicle id="truck93" type="truck_truck" depart="637.21" departLane="best">
        <route edges="226041033 324118556#1 420890025 420890029 439933933 663543997 -196117083 -5672752#1 -5672752#0 -496986969#1 -496986969#0 497258108#0 497258108#1 5670253#0 5670253#1 5670874#0 5670874#1 5670874#2 5671574#0 5671574#1"/>
    </vehicle>
    <vehicle id="truck94" type="truck_truck" depart="644.06" departLane="best">
        <route edges="46583189#2 5669664#0 5669664#1 422298615#4 -497258109 497258108#0 497258108#1 420899372 -195743152#0 439801903 460065821#1 460065822#0"/>
    </vehicle>
    <vehicle id="truck95" type="truck_truck" depart="650.91" departLane="best">
        <route edges="420890026 420890028 420890024 420890025 420890029 439933933 663543997 505582406#0 505582406#1 196117084#0"/>
    </vehicle>
    <vehicle id="truck96" type="truck_truck" depart="657.77" departLane="best">
        <route edges="420899373 496986970#0 496986970#1 496989355#0 496989355#1 496989355#3 382740985#0 382740985#3 46538375#11 569345537#1"/>
    </vehicle>
    <vehicle id="truck97" type="truck_truck" depart="664.62" departLane="best">
        <route edges="5669664#1 422298615#4 -497258109 496986969#0 496986969#1 496989355#0 496989355#1 496989355#3 382740985#0 46538371#0 196116976#6 196116976#7"/>
    </vehicle>
    <vehicle id="truck98" type="truck_truck" depart="671.47" departLane="best">
        <route edges="196116975#0 196116975#4 460065822#0 22898530#0 22898530#2 22898530#3 22898530#4 308322448#1 308322448#2 -5672752#1 -5672752#0 -496986969#1"/>
    </vehicle>
    <vehicle id="truck99" type="truck_truck" depart="678.32" departLane="best">
        <route edges="5672290#1 5670873#0 5670873#1 -5670253#1 -5670253#0 420899372 496986970#0 496986970#1 5672752#0 -5672752#0"/>
    </vehicle>
    <vehicle id="truck100" type="truck_truck" depart="685.17" departLane="best">
        <route edges="499172074#3 499172074#5 499172074#9 499172074#11 420890029 439933933 663543997 196117092 420890023 125480074 460065820 439801903 5670348#0 5670348#1"/>
    </vehicle>
    <vehicle id="truck101" type="truck_truck" depart="692.02" departLane="best">
        <route edges="195743342#0 5672290#1 5670873#0 5670873#1 -5670253#1 -5670253#0 420899372 496986970#0 496986970#1 496989355#0 618990022#8"/>
    </vehicle>
    <vehicle id="truck102" type="truck_truck" depart="698.88" departLane="best">
        <route edges="196116976#6 46538375#9 46538375#11 569345537#1 569345537#3 569345537#4 541350711#0 541350711#1 497258108#0 497258108#1 5670253#0 5670253#1 5670874#0 5670874#1 5670874#2 5671574#0 5671574#1"/>
    </vehicle>
    <vehicle id="truck104" type="truck_truck" depart="712.58" departLane="best">
        <route edges="499172074#0 499172074#1 499172074#2 499172074#3 496989355#3 382740985#0 46538371#0 46538371#3 46538371#4 46538371#5"/>
    </vehicle>
    <vehicle id="truck105" type="truck_truck" depart="719.43" departLane="best">
        <route edges="5670874#1 -5670874#1 -5670874#0 -5670253#1 -5670253#0 420899372 496986970#0 496986970#1 496989355#0 496989355#1 496989355#3 382740985#0 46538371#0 196116976#6 46538375#9"/>
    </vehicle>
    <vehicle id="truck106" type="truck_truck" depart="726.28" departLane="best">
        <route edges="569345537#1 569345537#3 569345537#4 541350711#0 541350711#1 497258109 5670139"/>
    </vehicle>
    <vehicle id="truck107" type="truck_truck" depart="733.13" departLane="best">
        <route edges="420899373 496986970#0 496986970#1 496989355#0 496989355#1 496989355#3 226041032#0 226041032#3 226041032#4"/>
    </vehicle>
    <vehicle id="truck108" type="truck_truck" depart="739.99" departLane="best">
        <route edges="505582406#0 -505582406#0 -196117083 196116976#0 196116976#1 196116976#3 324118554#1 382740985#0 382740985#3 46538375#11 46538375#13"/>
    </vehicle>
    <vehicle id="truck109" type="truck_truck" depart="746.84" departLane="best">
        <route edges="46538375#0 46538375#6 46538375#9 46538375#11 569345537#1 569345537#3 569345537#4 499172074#1 499172074#2 499172074#3 499172074#5 499172074#9 499172074#11 420890029 439933933 663543997 196117092 420890023 125480074 22898530#0 22898530#2 22898530#3"/>
    </vehicle>
    <vehicle id="truck110" type="truck_truck" depart="753.69" departLane="best">
        <route edges="-5670139 -497258109 496986969#0 496986969#1 5672752#0 5672752#1 196117083 196117092 308322446"/>
    </vehicle>
    <vehicle id="truck111" type="truck_truck" depart="760.54" departLane="best">
        <route edges="198924778#1 198924778#2 -5670874#2 -5670874#1 -5670874#0 -5670253#1 -5670253#0 420899372 496986970#0 496986970#1 5672752#0 5672752#1 196117083 196117092 308322446 308322448#1 308322448#2"/>
    </vehicle>
    <vehicle id="truck113" type="truck_truck" depart="774.25" departLane="best">
        <route edges="46525065#0 308322446 308322448#1 308322448#2 196117083 505582406#0 505582406#1"/>
    </vehicle>
    <vehicle id="truck114" type="truck_truck" depart="781.10" departLane="best">
        <route edges="308322447#1 308322447#2 497258108#1 5670253#0"/>
    </vehicle>
    <vehicle id="truck115" type="truck_truck" depart="787.95" departLane="best">
        <route edges="420890024 420890025 420890029 439933933 663543997 -196117083 -5672752#1 -5672752#0 -496986969#1 -496986969#0 497258109 5670139"/>
    </vehicle>
    <vehicle id="truck116" type="truck_truck" depart="794.80" departLane="best">
        <route edges="420890026 420890028 420890024 420890025 420890029 439933933 663543997 -196117083 -5672752#1 -5672752#0 -496986969#1 -496986969#0 497258109 -497258109"/>
    </vehicle>
    <vehicle id="truck117" type="truck_truck" depart="801.65" departLane="best">
        <route edges="46538375#0 46538375#6 46538375#9 46538375#11 569345537#1 569345537#3 569345537#4 541350711#0 541350711#1 497258109 -497258109"/>
    </vehicle>
    <vehicle id="truck119" type="truck_truck" depart="815.36" departLane="best">
        <route edges="499172074#3 496989355#3 226041032#0 226041032#3 226041032#4 569345537#4 541350711#0 541350711#1 497258108#0 497258108#1 5670253#0 5670253#1 5670874#0 5670874#1 5670874#2 5671574#0 5671574#1"/>
    </vehicle>
    <vehicle id="truck120" type="truck_truck" depart="822.21" departLane="best">
        <route edges="-196117084#1 -505582406#1 -505582406#0 -196117083 196116976#0 196116976#1 196116976#3 324118554#1 382740985#0 382740985#3 46538375#11 46538375#13"/>
    </vehicle>
    <vehicle id="truck121" type="truck_truck" depart="829.06" departLane="best">
        <route edges="46583189#1 46583189#2 5669664#0 5669664#1 422298615#4 -497258109 497258108#0 497258108#1 420899372 -195743152#0 439801903 5670348#0 5670348#1"/>
    </vehicle>
    <vehicle id="truck122" type="truck_truck" depart="835.91" departLane="best">
        <route edges="618990022#11 618990022#12 541350711#1 496986969#0 496986969#1 5672752#0 5672752#1 196117083 505582406#0 505582406#1 196117084#0"/>
    </vehicle>
    <vehicle id="truck123" type="truck_truck" depart="842.76" departLane="best">
        <route edges="-196117084#1 -505582406#1 -505582406#0 -196117083 196116976#0 196116976#1 196116976#3"/>
    </vehicle>
    <vehicle id="truck124" type="truck_truck" depart="849.61" departLane="best">
        <route edges="497258108#0 497258108#1 420899372 -195743152#0 439801903 5670348#0 5670348#1"/>
    </vehicle>
    <vehicle id="truck125" type="truck_truck" depart="856.47" departLane="best">
        <route edges="195743342#0 198924778#0 198924778#1 198924778#2 422298615#1 422298615#4 -497258109 497258108#0 497258108#1"/>
    </vehicle>