<?xml version="1.0" encoding="UTF-8"?>

<!-- generated on 03/18/19 00:26:07 by Eclipse SUMO duarouter Version 1.0.1
<configuration xmlns:xsi="http://www.w3.org/2001/XMLSchema-instance" xsi:noNamespaceSchemaLocation="http://sumo.dlr.de/xsd/duarouterConfiguration.xsd">

    <input>
        <net-file value="osm.net.xml"/>
        <route-files value="osm.bicycle.trips.xml"/>
    </input>

    <output>
        <output-file value="osm.bicycle.rou.xml"/>
        <alternatives-output value="osm.bicycle.rou.alt.xml"/>
    </output>

    <time>
        <begin value="0"/>
        <end value="3600.0"/>
    </time>

    <report>
        <no-warnings value="true"/>
        <ignore-errors value="true"/>
        <no-step-log value="true"/>
    </report>

</configuration>
-->

<routes xmlns:xsi="http://www.w3.org/2001/XMLSchema-instance" xsi:noNamespaceSchemaLocation="http://sumo.dlr.de/xsd/routes_file.xsd">
    <vType id="bike_bicycle" vClass="bicycle"/>
    <vehicle id="bike0" type="bike_bicycle" depart="0.00" departLane="best">
        <route edges="496986970#1 496989355#0 496989355#1 496989355#3 226041032#0 226041032#3 226041032#4 -226041032#4"/>
    </vehicle>
    <vehicle id="bike1" type="bike_bicycle" depart="2.98" departLane="best">
        <route edges="198924778#1 198924778#2 -5670874#2 -5670874#1 -5670874#0 -5670253#1 -5670253#0 420899372 496986970#0 496986970#1 496989355#0 496989355#1 496989355#3 382740985#0 46538371#0 196116976#6"/>
    </vehicle>
    <vehicle id="bike2" type="bike_bicycle" depart="5.96" departLane="best">
        <route edges="5669664#0 5669664#1 422298615#4 195743336#0 195743336#1 499172074#0 541350711#0"/>
    </vehicle>
    <vehicle id="bike3" type="bike_bicycle" depart="8.94" departLane="best">
        <route edges="618990022#11 618990022#12 541350711#1 496986969#0 496986969#1 496989355#0 496989355#1 499172074#5 499172074#9 -499172074#10"/>
    </vehicle>
    <vehicle id="bike4" type="bike_bicycle" depart="11.91" departLane="best">
        <route edges="420890026 420890028 420890024 420890025 -499172074#11 -458642436"/>
    </vehicle>
    <vehicle id="bike5" type="bike_bicycle" depart="14.89" departLane="best">
        <route edges="195743342#0 5672290#1 5670873#0 5670873#1 -5670253#1 -5670253#0 420899372 496986970#0 496986970#1 496989355#0 496989355#1 496989355#3 382740985#0 46538371#0"/>
    </vehicle>
    <vehicle id="bike8" type="bike_bicycle" depart="23.83" departLane="best">
        <route edges="195743342#0 5672290#1 5670873#0 5670873#1 -5670253#1 -5670253#0 420899372 496986970#0 496986970#1 496989355#0 496989355#1"/>
    </vehicle>
    <vehicle id="bike9" type="bike_bicycle" depart="26.81" departLane="best">
        <route edges="5672752#0 5672752#1 196117083 196117092 420890023 125480074 460065820 420899373 -196116988#0"/>
    </vehicle>
    <vehicle id="bike10" type="bike_bicycle" depart="29.79" departLane="best">
        <route edges="5672290#1 5670873#0 5670873#1 46583189#1 46583189#2 5669664#0"/>
    </vehicle>
    <vehicle id="bike11" type="bike_bicycle" depart="32.77" departLane="best">
        <route edges="308322446 308322448#1 308322448#2 -5672752#1"/>
    </vehicle>
    <vehicle id="bike12" type="bike_bicycle" depart="35.74" departLane="best">
        <route edges="648888157#2 648888157#3 22946967#0 22946967#1 -195743152#0 433476262#0 433476262#1 308322448#1"/>
    </vehicle>
    <vehicle id="bike13" type="bike_bicycle" depart="38.72" departLane="best">
        <route edges="-499172074#2 499172074#2 499172074#3 499172074#5 499172074#9 499172074#11 499172074#12 -499172074#12"/>
    </vehicle>
    <vehicle id="bike15" type="bike_bicycle" depart="44.68" departLane="best">
        <route edges="5672290#1 5670221#0 5670221#1 5670221#2 5670221#3"/>
    </vehicle>
    <vehicle id="bike17" type="bike_bicycle" depart="50.64" departLane="best">
        <route edges="324118556#1 324118558 196116976#5 196116976#6 46538375#9"/>
    </vehicle>
    <vehicle id="bike18" type="bike_bicycle" depart="53.62" departLane="best">
        <route edges="569345537#0 569345537#1 569345537#3 569345537#4 499172074#1"/>
    </vehicle>
    <vehicle id="bike20" type="bike_bicycle" depart="59.57" departLane="best">
        <route edges="499172074#3 499172074#5 499172074#9 499172074#11 420890029 439933933 663543997 505582406#0 -458672836"/>
    </vehicle>
    <vehicle id="bike21" type="bike_bicycle" depart="62.55" departLane="best">
        <route edges="196116975#0 196116975#4 460065822#0 22898530#0 22898530#2"/>
    </vehicle>
    <vehicle id="bike22" type="bike_bicycle" depart="65.53" departLane="best">
        <route edges="-499172074#11 -499172074#10 196116976#3 196116976#5 196116976#6 196116976#7"/>
    </vehicle>
    <vehicle id="bike23" type="bike_bicycle" depart="68.51" departLane="best">
        <route edges="-499172074#20 -499172074#13 -499172074#12 -499172074#11 -499172074#10 196116976#3 324118554#1 226041032#0 226041032#3 226041032#4"/>
    </vehicle>
    <vehicle id="bike24" type="bike_bicycle" depart="71.49" departLane="best">
        <route edges="496986970#0 496986970#1 496989355#0 496989355#1 496989355#3 382740985#0 382740985#3"/>
    </vehicle>
    <vehicle id="bike25" type="bike_bicycle" depart="74.47" departLane="best">
        <route edges="308322448#2 196116976#0 196116976#1 196116976#3"/>
    </vehicle>
    <vehicle id="bike26" type="bike_bicycle" depart="77.44" departLane="best">
        <route edges="196117092 308322446 308322448#1 308322448#2 196116976#0 618990022#6 618990022#7 618990022#8"/>
    </vehicle>
    <vehicle id="bike27" type="bike_bicycle" depart="80.42" departLane="best">
        <route edges="496989355#0 618990022#8 618990022#9 618990022#10 618990022#11 618990022#12 541350711#1 497258109"/>
    </vehicle>
    <vehicle id="bike29" type="bike_bicycle" depart="86.38" departLane="best">
        <route edges="-5670874#1 -5670874#0 -5670253#1 -5670253#0 420899372 496986970#0 496986970#1 5672752#0 5672752#1 196117083 196117092 420890023"/>
    </vehicle>
    <vehicle id="bike30" type="bike_bicycle" depart="89.36" departLane="best">
        <route edges="663543998#2 663543998#3 499172074#13 499172074#14"/>
    </vehicle>
    <vehicle id="bike31" type="bike_bicycle" depart="92.34" departLane="best">
        <route edges="460065822#0 22898530#0 22898530#2 22898530#3 22898530#4 308322448#1 308322448#2 196116976#0 196116976#1 499172074#9 499172074#11 499172074#12 499172074#13 555303393"/>
    </vehicle>
    <vehicle id="bike32" type="bike_bicycle" depart="95.32" departLane="best">
        <route edges="569345537#4 541350711#0 541350711#1 497258108#0 497258108#1 5670253#0 5670253#1 5670874#0"/>
    </vehicle>
    <vehicle id="bike33" type="bike_bicycle" depart="98.30" departLane="best">
        <route edges="196116975#0 196116975#4 460065822#0 22898530#0 22898530#2 22898530#3 22898530#4 308322448#1 308322448#2 196116976#0 196116976#1 499172074#9 -458642436"/>
    </vehicle>
    <vehicle id="bike34" type="bike_bicycle" depart="101.27" departLane="best">
        <route edges="22898530#2 22898530#3 22898530#4 308322448#1 308322448#2 196116976#0 196116976#1 196116976#3 324118554#1 226041032#0"/>
    </vehicle>
    <vehicle id="bike36" type="bike_bicycle" depart="107.23" departLane="best">
        <route edges="618990022#0 618990022#3 439933933 663543997 196117092 308322446"/>
    </vehicle>
    <vehicle id="bike37" type="bike_bicycle" depart="110.21" departLane="best">
        <route edges="496989355#3 382740985#0 46538371#0 46538371#3 420890028"/>
    </vehicle>
    <vehicle id="bike38" type="bike_bicycle" depart="113.19" departLane="best">
        <route edges="618990022#6 618990022#7 496989355#1 499172074#5 196116976#3 433476262#5"/>
    </vehicle>
    <vehicle id="bike39" type="bike_bicycle" depart="116.17" departLane="best">
        <route edges="196117092 308322446 308322448#1 308322448#2 196117083 505582406#0 505582406#1 196117084#0"/>
    </vehicle>
    <vehicle id="bike41" type="bike_bicycle" depart="122.12" departLane="best">
        <route edges="46538375#0 663543998#1 663543998#2 663543998#3 663543998#4 618990022#4 618990022#6 618990022#7 618990022#8 618990022#9 618990022#10"/>
    </vehicle>
    <vehicle id="bike42" type="bike_bicycle" depart="125.10" departLane="best">
        <route edges="382740985#3 46538375#11 569345537#1 420905130#0 420905130#2 46538371#0 196116976#6"/>
    </vehicle>
    <vehicle id="bike43" type="bike_bicycle" depart="128.08" departLane="best">
        <route edges="663543998#4 618990022#4 196116976#1 196116976#3 324118554#1 382740985#0 46538371#0"/>
    </vehicle>
    <vehicle id="bike44" type="bike_bicycle" depart="131.06" departLane="best">
        <route edges="-499172074#13 663543998#4 439933933 663543997 505582406#0 -458672836"/>
    </vehicle>
    <vehicle id="bike45" type="bike_bicycle" depart="134.04" departLane="best">
        <route edges="-499172074#4 499172074#3 499172074#5 499172074#9 499172074#11 499172074#12"/>
    </vehicle>
    <vehicle id="bike46" type="bike_bicycle" depart="137.02" departLane="best">
        <route edges="5670874#1 -5670874#1 -5670874#0 -5670253#1 -5670253#0 420899372 496986970#0 496986970#1 496989355#0 496989355#1 496989355#3 382740985#0 382740985#3 46538375#11 569345537#1 420905130#0 420905130#2"/>
    </vehicle>
    <vehicle id="bike47" type="bike_bicycle" depart="140.00" departLane="best">
        <route edges="-499172074#0 499172074#0 541350711#0 541350711#1 496986969#0 496986969#1 5672752#0 5672752#1 196117083 196117092 420890023"/>
    </vehicle>
    <vehicle id="bike48" type="bike_bicycle" depart="142.97" departLane="best">
        <route edges="663543998#4 618990022#4 196116976#1 196116976#3 196116976#5 46538371#3 46538371#4 46538371#5"/>
    </vehicle>
    <vehicle id="bike49" type="bike_bicycle" depart="145.95" departLane="best">
        <route edges="663543997 -196117083 -5672752#1 -5672752#0 -496986969#1 -496986969#0 497258108#0 497258108#1 576438593#0 576438593#1"/>
    </vehicle>
    <vehicle id="bike51" type="bike_bicycle" depart="151.91" departLane="best">
        <route edges="499172074#1 499172074#2 499172074#3 496989355#3 382740985#0 382740985#3 46538375#11 46538375#13"/>
    </vehicle>
    <vehicle id="bike52" type="bike_bicycle" depart="154.89" departLane="best">
        <route edges="196117092 308322446 308322448#1 308322448#2 196116976#0 196116976#1 499172074#9 499172074#11 499172074#12 499172074#13 499172074#14"/>
    </vehicle>
    <vehicle id="bike53" type="bike_bicycle" depart="157.87" departLane="best">
        <route edges="-499172074#7 499172074#5 499172074#9 499172074#11 420890029 439933933 663543997 196117092 420890023 125480074 460065820 433476262#0"/>
    </vehicle>
    <vehicle id="bike56" type="bike_bicycle" depart="166.80" departLane="best">
        <route edges="439801903 460065821#1 460065822#0 22898530#0 22898530#2 22898530#3 22898530#4 308322448#1 308322448#2 -5672752#1 -5672752#0 -496986969#1 -496986969#0 497258109 195743336#0"/>
    </vehicle>
    <vehicle id="bike58" type="bike_bicycle" depart="172.76" departLane="best">
        <route edges="226041033 663543998#3 499172074#13 499172074#14"/>
    </vehicle>
    <vehicle id="bike59" type="bike_bicycle" depart="175.74" departLane="best">
        <route edges="46583189#1 46583189#2 5669664#0 5669664#1 422298615#4 -497258109 496986969#0 496986969#1 5672752#0 -5672752#0"/>
    </vehicle>
    <vehicle id="bike60" type="bike_bicycle" depart="178.72" departLane="best">
        <route edges="5670253#0 -5670253#0 420899372 496986970#0 496986970#1 496989355#0 496989355#1 496989355#3 382740985#0 382740985#3 46538375#11 46538375#13"/>
    </vehicle>
    <vehicle id="bike61" type="bike_bicycle" depart="181.70" departLane="best">
        <route edges="5670873#0 5670873#1 -5670253#1 -5670253#0 420899372 496986970#0 496986970#1 496989355#0 496989355#1 496989355#3 382740985#0 382740985#3 46538375#11"/>
    </vehicle>
    <vehicle id="bike62" type="bike_bicycle" depart="184.68" departLane="best">
        <route edges="-195743152#0 433476262#0 433476262#1 308322447#1 308322447#2"/>
    </vehicle>
    <vehicle id="bike63" type="bike_bicycle" depart="187.65" departLane="best">
        <route edges="-196117084#1 -505582406#1 -505582406#0 -196117083 196116976#0 618990022#6 618990022#7"/>
    </vehicle>
    <vehicle id="bike64" type="bike_bicycle" depart="190.63" departLane="best">
        <route edges="618990022#0 618990022#3 618990022#4 196116976#1 196116976#3 196116976#5 196116976#6 46538375#9 46538375#11 569345537#1"/>
    </vehicle>
    <vehicle id="bike65" type="bike_bicycle" depart="193.61" departLane="best">
        <route edges="226041033 663543998#3 663543998#4 618990022#4 618990022#6 618990022#7 618990022#8 -477823038"/>
    </vehicle>
    <vehicle id="bike68" type="bike_bicycle" depart="202.55" departLane="best">
        <route edges="-499172074#1 541350711#0 541350711#1 497258108#0 497258108#1 420899372 -195743152#0 439801903 5670348#0 5670348#1"/>
    </vehicle>
    <vehicle id="bike69" type="bike_bicycle" depart="205.53" departLane="best">
        <route edges="5670253#1 -5670253#1 -5670253#0"/>
    </vehicle>
    <vehicle id="bike70" type="bike_bicycle" depart="208.51" departLane="best">
        <route edges="433476262#1 308322448#1 308322448#2 196116976#0 196116976#1 196116976#3 196116976#5 196116976#6 46538375#9"/>
    </vehicle>
    <vehicle id="bike72" type="bike_bicycle" depart="214.46" departLane="best">
        <route edges="420890026 420890028 420890024 420890025 -499172074#11 -499172074#10 196116976#3"/>
    </vehicle>
    <vehicle id="bike74" type="bike_bicycle" depart="220.42" departLane="best">
        <route edges="186202420#1 433476262#0 433476262#1 308322448#1 308322448#2 196117083 196117092 308322446"/>
    </vehicle>
    <vehicle id="bike75" type="bike_bicycle" depart="223.40" departLane="best">
        <route edges="663543998#3 -499172074#12 -499172074#11 -499172074#10 -499172074#7 -499172074#4 -499172074#2 499172074#2"/>
    </vehicle>
    <vehicle id="bike76" type="bike_bicycle" depart="226.38" departLane="best">
        <route edges="420899372 496986970#0 496986970#1 496989355#0 496989355#1 496989355#3 382740985#0 46538371#0 46538371#3 46538371#4"/>
    </vehicle>
    <vehicle id="bike77" type="bike_bicycle" depart="229.36" departLane="best">
        <route edges="-505582406#1 -505582406#0 -196117083 196116976#0 196116976#1 196116976#3 196116976#5 196116976#6 196116976#7"/>
    </vehicle>
    <vehicle id="bike78" type="bike_bicycle" depart="232.33" departLane="best">
        <route edges="308322446 308322448#1 308322448#2 196116976#0 618990022#6 618990022#7 496989355#1"/>
    </vehicle>
    <vehicle id="bike79" type="bike_bicycle" depart="235.31" departLane="best">
        <route edges="196116975#0 196116975#4 460065822#0 22898530#0 22898530#2 22898530#3 22898530#4 308322448#1 308322448#2 196116976#0 196116976#1 196116976#3 196116976#5 196116976#6"/>
    </vehicle>
    <vehicle id="bike80" type="bike_bicycle" depart="238.29" departLane="best">
        <route edges="-499172074#1 499172074#1 499172074#2 499172074#3 499172074#5 499172074#9 499172074#11 499172074#12 499172074#13"/>
    </vehicle>
    <vehicle id="bike81" type="bike_bicycle" depart="241.27" departLane="best">
        <route edges="196116975#0 196116975#4 460065822#0 22898530#0 22898530#2 22898530#3 22898530#4 308322448#1 308322448#2 196116976#0 618990022#6 618990022#7 618990022#8 618990022#9 618990022#10 618990022#11 618990022#12"/>
    </vehicle>
    <vehicle id="bike83" type="bike_bicycle" depart="247.23" departLane="best">
        <route edges="196116976#0 196116976#1 499172074#9 499172074#11 420890029 439933933 663543997 505582406#0"/>
    </vehicle>
    <vehicle id="bike84" type="bike_bicycle" depart="250.21" departLane="best">
        <route edges="195743342#0 5672290#1 5670873#0 5670873#1 -5670253#1"/>
    </vehicle>
    <vehicle id="bike85" type="bike_bicycle" depart="253.18" departLane="best">
        <route edges="648888142#1 648888142#2 5670873#1 5670874#0 5670874#1 5670874#2 422298615#1 422298615#4 -497258109 496986969#0 496986969#1"/>
    </vehicle>
    <vehicle id="bike86" type="bike_bicycle" depart="256.16" departLane="best">
        <route edges="433476262#1 308322447#1 308322447#2 497258108#1 5670253#0 5670253#1 5670874#0 5670874#1 5670874#2"/>
    </vehicle>
    <vehicle id="bike87" type="bike_bicycle" depart="259.14" departLane="best">
        <route edges="5672290#1 5670873#0 5670873#1 5670874#0 5670874#1 5670874#2 422298615#1 422298615#4 195743336#0 195743336#1 195743336#2"/>
    </vehicle>
    <vehicle id="bike88" type="bike_bicycle" depart="262.12" departLane="best">
        <route edges="-499172074#20 -499172074#13 663543998#4 439933933 663543997 -196117083 -5672752#1 -5672752#0 -496986969#1 -496986969#0 497258108#0 308322447#3 308322447#4 5669664#0 5669664#1 422298615#4"/>
    </vehicle>
    <vehicle id="bike89" type="bike_bicycle" depart="265.10" departLane="best">
        <route edges="420890026 420890028 420890024 324118558 196116976#5 196116976#6 433476262#7"/>
    </vehicle>
    <vehicle id="bike90" type="bike_bicycle" depart="268.08" departLane="best">
        <route edges="541350711#0 541350711#1 496986969#0 496986969#1 5672752#0 5672752#1 196117083 505582406#0 505582406#1"/>
    </vehicle>
    <vehicle id="bike91" type="bike_bicycle" depart="271.06" departLane="best">
        <route edges="663543998#1 663543998#2 663543998#3 499172074#13 -499172074#13"/>
    </vehicle>
    <vehicle id="bike92" type="bike_bicycle" depart="274.04" departLane="best">
        <route edges="382740985#3 46538375#11 569345537#1 420905130#0 420905130#2 46538371#0 46538371#3 420890028 420890024 420890025 420890029 439933933 663543997 196117092 308322446 308322448#1"/>
    </vehicle>
    <vehicle id="bike94" type="bike_bicycle" depart="279.99" departLane="best">
        <route edges="125480074 22898530#0 22898530#2 22898530#3 22898530#4 308322448#1 308322448#2 196116976#0 433476262#3"/>
    </vehicle>
    <vehicle id="bike95" type="bike_bicycle" depart="282.97" departLane="best">
        <route edges="420890026 420890028 420890024 324118558 324118554#1 226041032#0 226041032#3 226041032#4"/>
    </vehicle>
    <vehicle id="bike96" type="bike_bicycle" depart="285.95" departLane="best">
        <route edges="196116976#3 196116976#5 46538371#3 420890028 420890024 420890025 420890029 618990022#4 618990022#6"/>
    </vehicle>
    <vehicle id="bike97" type="bike_bicycle" depart="288.93" departLane="best">
        <route edges="420899373 -196116988#0 576438593#0 576438593#1"/>
    </vehicle>
    <vehicle id="bike98" type="bike_bicycle" depart="291.91" departLane="best">
        <route edges="460065821#1 460065822#0 22898530#0 22898530#2 22898530#3 22898530#4 308322448#1 308322448#2 196116976#0 618990022#6 618990022#7 618990022#8 -477823038"/>
    </vehicle>
    <vehicle id="bike99" type="bike_bicycle" depart="294.89" departLane="best">
        <route edges="663543998#4 618990022#4 196116976#1 196116976#3 196116976#5 196116976#6 46538375#9 46538375#11 569345537#1 569345537#3"/>
    </vehicle>
    <vehicle id="bike100" type="bike_bicycle" depart="297.86" departLane="best">
        <route edges="663543997 -196117083 196116976#0 618990022#6"/>
    </vehicle>
    <vehicle id="bike102" type="bike_bicycle" depart="303.82" departLane="best">
        <route edges="433476262#4 196116976#5"/>
    </vehicle>
    <vehicle id="bike103" type="bike_bicycle" depart="306.80" departLane="best">
        <route edges="382740985#3 46538375#11 569345537#1 569345537#3 569345537#4 541350711#0 541350711#1 496986969#0 -496986969#0"/>
    </vehicle>
    <vehicle id="bike104" type="bike_bicycle" depart="309.78" departLane="best">
        <route edges="324118556#1 324118558 196116976#5 46538371#3 46538371#4 663543998#2 663543998#3"/>
    </vehicle>
    <vehicle id="bike105" type="bike_bicycle" depart="312.76" departLane="best">
        <route edges="196117092 420890023 125480074 460065820 420899373 -196116988#0 5670253#0 5670253#1 5670874#0 5670874#1 5670874#2"/>
    </vehicle>
    <vehicle id="bike106" type="bike_bicycle" depart="315.74" departLane="best">
        <route edges="420905130#2 382740985#3 46538375#11 569345537#1 569345537#3 569345537#4 541350711#0 541350711#1 497258108#0 497258108#1 5670253#0 5670253#1 5670874#0 5670874#1 5670874#2 422298615#1"/>
    </vehicle>
    <vehicle id="bike107" type="bike_bicycle" depart="318.71" departLane="best">
        <route edges="648888157#2 648888157#3 22946967#0 22946967#1 -195743152#0 439801903 91383966#1"/>
    </vehicle>
    <vehicle id="bike109" type="bike_bicycle" depart="324.67" departLane="best">
        <route edges="-5670874#0 -5670253#1 -5670253#0 420899372 -195743152#0 439801903 460065821#1 460065822#0 22898530#0 22898530#2 22898530#3 22898530#4"/>
    </vehicle>
    <vehicle id="bike110" type="bike_bicycle" depart="327.65" departLane="best">
        <route edges="663543997 196117092 308322446 308322447#1 496986970#1"/>
    </vehicle>
    <vehicle id="bike111" type="bike_bicycle" depart="330.63" departLane="best">
        <route edges="458672836 -505582406#0 196117092 420890023 125480074 460065820 439801903 5670348#0"/>
    </vehicle>
    <vehicle id="bike112" type="bike_bicycle" depart="333.61" departLane="best">
        <route edges="-496986969#1 496986969#1 496989355#0"/>
    </vehicle>
    <vehicle id="bike113" type="bike_bicycle" depart="336.59" departLane="best">
        <route edges="439801903 460065821#1 460065822#0 22898530#0 22898530#2 22898530#3 22898530#4 308322448#1 308322448#2 196116976#0 196116976#1 196116976#3 324118554#1 226041032#0 570158316"/>
    </vehicle>
    <vehicle id="bike115" type="bike_bicycle" depart="342.54" departLane="best">
        <route edges="-499172074#11 -499172074#10 -499172074#7 -499172074#4 -499172074#2 -499172074#1 -499172074#0 195743336#2"/>
    </vehicle>
    <vehicle id="bike116" type="bike_bicycle" depart="345.52" departLane="best">
        <route edges="46538375#11 569345537#1 569345537#3 569345537#4 541350711#0"/>
    </vehicle>
    <vehicle id="bike117" type="bike_bicycle" depart="348.50" departLane="best">
        <route edges="196116975#4 460065822#0 22898530#0 22898530#2 22898530#3 22898530#4 308322448#1 308322448#2 196117083 505582406#0 -505582406#0"/>
    </vehicle>
    <vehicle id="bike118" type="bike_bicycle" depart="351.48" departLane="best">
        <route edges="618990022#11 618990022#12 541350711#1 496986969#0 496986969#1 5672752#0 5672752#1 196117083 505582406#0 505582406#1 196117084#0"/>
    </vehicle>
    <vehicle id="bike119" type="bike_bicycle" depart="354.46" departLane="best">
        <route edges="46538375#11 569345537#1 569345537#3 569345537#4 499172074#1"/>
    </vehicle>
    <vehicle id="bike120" type="bike_bicycle" depart="357.44" departLane="best">
        <route edges="420890026 46538371#4 663543998#2 663543998#3 663543998#4 439933933 663543997 -196117083 -5672752#1 -5672752#0 496989355#0"/>
    </vehicle>
    <vehicle id="bike121" type="bike_bicycle" depart="360.42" departLane="best">
        <route edges="458180198#1 5672290#1 5670873#0 5670873#1 -5670253#1 -5670253#0 420899372 496986970#0 496986970#1 496989355#0 618990022#8"/>
    </vehicle>
    <vehicle id="bike123" type="bike_bicycle" depart="366.37" departLane="best">
        <route edges="196116976#0 196116976#1 196116976#3 196116976#5 46538371#3 420890028"/>
    </vehicle>
    <vehicle id="bike124" type="bike_bicycle" depart="369.35" departLane="best">
        <route edges="497258109 -497258109 496986969#0 496986969#1 5672752#0 5672752#1 196117083 196117092 420890023 125480074 22898530#0 22898530#2 22898530#3 22898530#4"/>
    </vehicle>
    <vehicle id="bike125" type="bike_bicycle" depart="372.33" departLane="best">
        <route edges="22898530#2 22898530#3 22898530#4 308322448#1 308322448#2 196117083 196117092 420890023 125480074 460065820 439801903 5670348#0"/>
    </vehicle>
    <vehicle id="bike126" type="bike_bicycle" depart="375.31" departLane="best">
        <route edges="-499172074#10 196116976#3 433476262#5"/>
    </vehicle>
    <vehicle id="bike127" type="bike_bicycle" depart="378.29" departLane="best">
        <route edges="663543998#4 439933933 663543997 196117092 420890023 125480074 460065820 439801903 91383966#1"/>
    </vehicle>
    <vehicle id="bike128" type="bike_bicycle" depart="381.27" departLane="best">
        <route edges="-499172074#10 196116976#3"/>
    </vehicle>
    <vehicle id="bike129" type="bike_bicycle" depart="384.25" departLane="best">
        <route edges="196117092 308322446 308322448#1 308322448#2 196116976#0 618990022#6 618990022#7 618990022#8"/>
    </vehicle>
    <vehicle id="bike130" type="bike_bicycle" depart="387.22" departLane="best">
        <route edges="618990022#0 618990022#3 439933933 663543997 -196117083 -5672752#1 -5672752#0 -496986969#1 -496986969#0 497258108#0 497258108#1 576438593#0 576438593#1 576438593#2 583505066#2"/>
    </vehicle>
    <vehicle id="bike131" type="bike_bicycle" depart="390.20" departLane="best">
        <route edges="308322448#2 -5672752#1"/>
    </vehicle>
    <vehicle id="bike132" type="bike_bicycle" depart="393.18" departLane="best">
        <route edges="569345537#1 569345537#3 569345537#4 541350711#0 541350711#1 497258108#0 308322447#3 308322447#4 5669664#0 5669664#1"/>
    </vehicle>
    <vehicle id="bike133" type="bike_bicycle" depart="396.16" departLane="best">
        <route edges="46583189#2 5669664#0 5669664#1 422298615#4 -497258109 496986969#0 496986969#1 496989355#0 496989355#1 499172074#5 499172074#9 499172074#11 499172074#12 663543998#4"/>
    </vehicle>
    <vehicle id="bike134" type="bike_bicycle" depart="399.14" departLane="best">
        <route edges="496989355#3 226041032#0 226041032#3 226041032#4 569345537#4 541350711#0 541350711#1 497258108#0 497258108#1 420899372 -196116988#0"/>
    </vehicle>
    <vehicle id="bike135" type="bike_bicycle" depart="402.12" departLane="best">
        <route edges="5672752#1 196117083 196117092 420890023 125480074 22898530#0 22898530#2 22898530#3 22898530#4"/>
    </vehicle>
    <vehicle id="bike136" type="bike_bicycle" depart="405.10" departLane="best">
        <route edges="497258108#0 497258108#1 420899372 496986970#0 496986970#1 496989355#0 618990022#8 618990022#9"/>
    </vehicle>
    <vehicle id="bike137" type="bike_bicycle" depart="408.07" departLane="best">
        <route edges="-555303393 -499172074#13 -499172074#12 -499172074#11 -499172074#10 -499172074#7"/>
    </vehicle>
    <vehicle id="bike138" type="bike_bicycle" depart="411.05" departLane="best">
        <route edges="-499172074#4 499172074#3 496989355#3 382740985#0 46538371#0 433476262#6 46538375#9"/>
    </vehicle>
    <vehicle id="bike139" type="bike_bicycle" depart="414.03" departLane="best">
        <route edges="198924778#0 198924778#1 198924778#2 422298615#1 422298615#4 -497258109 497258108#0 497258108#1"/>
    </vehicle>
    <vehicle id="bike140" type="bike_bicycle" depart="417.01" departLane="best">
        <route edges="505582406#0 -505582406#0 -196117083 196116976#0"/>
    </vehicle>
    <vehicle id="bike142" type="bike_bicycle" depart="422.97" departLane="best">
        <route edges="433476262#4 433476262#5 46538371#3 420890028 420890024 420890025 420890029 618990022#4 618990022#6 618990022#7 618990022#8 618990022#9 618990022#10 618990022#11 618990022#12"/>
    </vehicle>
    <vehicle id="bike143" type="bike_bicycle" depart="425.95" departLane="best">
        <route edges="569345537#4 499172074#1 499172074#2 499172074#3 499172074#5 499172074#9 499172074#11 499172074#12 -499172074#12"/>
    </vehicle>
    <vehicle id="bike144" type="bike_bicycle" depart="428.92" departLane="best">
        <route edges="420890026 420890028 420890024 324118558 324118554#1 226041032#0 226041032#3"/>
    </vehicle>
    <vehicle id="bike147" type="bike_bicycle" depart="437.86" departLane="best">
        <route edges="5669664#1 422298615#4 -497258109 496986969#0 496986969#1 496989355#0 496989355#1 496989355#3 382740985#0 46538371#0 433476262#6 46538375#9"/>
    </vehicle>
    <vehicle id="bike148" type="bike_bicycle" depart="440.84" departLane="best">
        <route edges="420890026 46538371#4 663543998#2 663543998#3 663543998#4 439933933 663543997 196117092 420890023 125480074 460065820 420899373 -196116988#0"/>
    </vehicle>
    <vehicle id="bike149" type="bike_bicycle" depart="443.82" departLane="best">
        <route edges="-499172074#10 -499172074#7 -499172074#4 -499172074#2 -499172074#1 541350711#0 541350711#1 497258108#0 497258108#1 576438593#0 576438593#1 576438593#2 583505066#2"/>
    </vehicle>
    <vehicle id="bike151" type="bike_bicycle" depart="449.78" departLane="best">
        <route edges="569345537#1 569345537#3 569345537#4 541350711#0 541350711#1 497258108#0 497258108#1 420899372 496986970#0 496986970#1"/>
    </vehicle>
    <vehicle id="bike152" type="bike_bicycle" depart="452.75" departLane="best">
        <route edges="-5670253#0"/>
    </vehicle>
    <vehicle id="bike153" type="bike_bicycle" depart="455.73" departLane="best">
        <route edges="22898530#0 22898530#2 22898530#3 22898530#4 308322448#1 308322448#2 196116976#0 618990022#6 618990022#7 618990022#8 618990022#9 618990022#10 618990022#11"/>
    </vehicle>
    <vehicle id="bike154" type="bike_bicycle" depart="458.71" departLane="best">
        <route edges="5670874#2 -5670874#2 -5670874#1 -5670874#0 -5670253#1 -5670253#0 576438593#0 576438593#1"/>
    </vehicle>
    <vehicle id="bike155" type="bike_bicycle" depart="461.69" departLane="best">
        <route edges="618990022#12 541350711#1 496986969#0 496986969#1 496989355#0 496989355#1 499172074#5 196116976#3"/>
    </vehicle>
    <vehicle id="bike156" type="bike_bicycle" depart="464.67" departLane="best">
        <route edges="196116976#3 324118554#1 226041032#0 226041032#3 226041032#4 569345537#4 499172074#1 499172074#2 -499172074#2"/>
    </vehicle>