<?xml version="1.0" encoding="UTF-8"?>
<!-- generated on 2019-03-18 00:26:06.754901 by $Id$ via randomTrips.py
  options: 
-->
<routes xmlns:xsi="http://www.w3.org/2001/XMLSchema-instance" xsi:noNamespaceSchemaLocation="http://sumo.dlr.de/xsd/routes_file.xsd">
    <vType id="truck_truck" vClass="truck">
    </vType>
    <trip id="truck0" depart="0.00" departLane="best" from="198924778#2" to="196117084#0" type="truck_truck"/>
    <trip id="truck1" depart="6.85" departLane="best" from="569345537#0" to="186202420#0" type="truck_truck"/>
    <trip id="truck2" depart="13.70" departLane="best" from="420890024" to="-497258109" type="truck_truck"/>
    <trip id="truck3" depart="20.56" departLane="best" from="196116975#0" to="46538371#5" type="truck_truck"/>
    <trip id="truck5" depart="34.26" departLane="best" from="5670253#1" to="505582406#1" type="truck_truck"/>
    <trip id="truck6" depart="41.11" departLane="best" from="458180198#0" to="663543997" type="truck_truck"/>
    <trip id="truck7" depart="47.96" departLane="best" from="308322448#1" to="46583189#1" type="truck_truck"/>
    <trip id="truck8" depart="54.81" departLane="best" from="-5670253#0" to="22898530#3" type="truck_truck"/>
    <trip id="truck9" depart="61.67" departLane="best" from="308322447#4" to="196117084#0" type="truck_truck"/>
    <trip id="truck11" depart="75.37" departLane="best" from="46538375#9" to="497258108#1" type="truck_truck"/>
    <trip id="truck12" depart="82.22" departLane="best" from="195743342#0" to="5670139" type="truck_truck"/>
    <trip id="truck13" depart="89.07" departLane="best" from="195743336#1" to="420890023" type="truck_truck"/>
    <trip id="truck15" depart="102.78" departLane="best" from="196116975#0" to="618990022#4" type="truck_truck"/>
    <trip id="truck16" depart="109.63" departLane="best" from="569345537#0" to="308322448#1" type="truck_truck"/>
    <trip id="truck17" depart="116.48" departLane="best" from="46583189#2" to="420890028" type="truck_truck"/>
    <trip id="truck18" depart="123.33" departLane="best" from="618990022#0" to="460065821#1" type="truck_truck"/>
    <trip id="truck19" depart="130.18" departLane="best" from="198924778#0" to="226041032#0" type="truck_truck"/>
    <trip id="truck20" depart="137.03" departLane="best" from="46525065#0" to="22898530#0" type="truck_truck"/>
    <trip id="truck21" depart="143.89" departLane="best" from="46525065#0" to="5672951#1" type="truck_truck"/>
    <trip id="truck22" depart="150.74" departLane="best" from="324118558" to="196117084#0" type="truck_truck"/>
    <trip id="truck23" depart="157.59" departLane="best" from="663543997" to="46538375#11" type="truck_truck"/>
    <trip id="truck24" depart="164.44" departLane="best" from="-5670253#1" to="499172074#11" type="truck_truck"/>
    <trip id="truck25" depart="171.29" departLane="best" from="5669664#1" to="420905130#2" type="truck_truck"/>
    <trip id="truck26" depart="178.14" departLane="best" from="663543997" to="46538375#13" type="truck_truck"/>
    <trip id="truck27" depart="185.00" departLane="best" from="-196117083" to="5669664#1" type="truck_truck"/>
    <trip id="truck28" depart="191.85" departLane="best" from="496989355#0" to="46538375#13" type="truck_truck"/>
    <trip id="truck29" depart="198.70" departLane="best" from="198924778#0" to="499172074#13" type="truck_truck"/>
    <trip id="truck30" depart="205.55" departLane="best" from="-5670874#0" to="439801903" type="truck_truck"/>
    <trip id="truck31" depart="212.40" departLane="best" from="569345537#0" to="22898530#0" type="truck_truck"/>
    <trip id="truck32" depart="219.26" departLane="best" from="439801903" to="196116976#7" type="truck_truck"/>
    <trip id="truck33" depart="226.11" departLane="best" from="618990022#0" to="5672951#0" type="truck_truck"/>
    <trip id="truck34" depart="232.96" departLane="best" from="46538375#0" to="196116976#3" type="truck_truck"/>
    <trip id="truck35" depart="239.81" departLane="best" from="499172074#9" to="46538375#13" type="truck_truck"/>
    <trip id="truck36" depart="246.66" departLane="best" from="-196117084#1" to="618990022#12" type="truck_truck"/>
    <trip id="truck37" depart="253.51" departLane="best" from="569345537#0" to="5671574#1" type="truck_truck"/>
    <trip id="truck38" depart="260.37" departLane="best" from="226041033" to="-5670874#0" type="truck_truck"/>
    <trip id="truck39" depart="267.22" departLane="best" from="-5670139" to="46538371#5" type="truck_truck"/>
    <trip id="truck40" depart="274.07" departLane="best" from="505582406#0" to="195743336#2" type="truck_truck"/>
    <trip id="truck41" depart="280.92" departLane="best" from="420899373" to="46538375#9" type="truck_truck"/>
    <trip id="truck42" depart="287.77" departLane="best" from="420890025" to="196117084#0" type="truck_truck"/>
    <trip id="truck43" depart="294.62" departLane="best" from="663543997" to="499172074#14" type="truck_truck"/>
    <trip id="truck44" depart="301.48" departLane="best" from="420890026" to="46538375#13" type="truck_truck"/>
    <trip id="truck45" depart="308.33" departLane="best" from="-5670874#2" to="196117092" type="truck_truck"/>
    <trip id="truck46" depart="315.18" departLane="best" from="196116976#0" to="196117084#0" type="truck_truck"/>
    <trip id="truck47" depart="322.03" departLane="best" from="196116975#0" to="195743336#2" type="truck_truck"/>
    <trip id="truck48" depart="328.88" departLane="best" from="618990022#0" to="496986969#1" type="truck_truck"/>
    <trip id="truck49" depart="335.73" departLane="best" from="5670253#1" to="196116976#7" type="truck_truck"/>
    <trip id="truck50" depart="342.59" departLane="best" from="460065821#1" to="-5670253#1" type="truck_truck"/>
    <trip id="truck51" depart="349.44" departLane="best" from="663543997" to="5671574#1" type="truck_truck"/>
    <trip id="truck52" depart="356.29" departLane="best" from="5672290#1" to="196116976#7" type="truck_truck"/>
    <trip id="truck53" depart="363.14" departLane="best" from="420905130#2" to="196117084#0" type="truck_truck"/>
    <trip id="truck54" depart="369.99" departLane="best" from="324118558" to="-5670874#0" type="truck_truck"/>
    <trip id="truck55" depart="376.84" departLane="best" from="198924778#0" to="5670348#1" type="truck_truck"/>
    <trip id="truck56" depart="383.70" departLane="best" from="420890026" to="422298615#1" type="truck_truck"/>
    <trip id="truck57" depart="390.55" departLane="best" from="618990022#13" to="91383966#1" type="truck_truck"/>
    <trip id="truck58" depart="397.40" departLane="best" from="460065822#0" to="5669664#1" type="truck_truck"/>
    <trip id="truck60" depart="411.10" departLane="best" from="-5670139" to="196116976#7" type="truck_truck"/>
    <trip id="truck61" depart="417.96" departLane="best" from="196116976#1" to="195743336#2" type="truck_truck"/>
    <trip id="truck62" depart="424.81" departLane="best" from="196116975#0" to="5669664#0" type="truck_truck"/>
    <trip id="truck63" depart="431.66" departLane="best" from="226041033" to="5670253#0" type="truck_truck"/>
    <trip id="truck64" depart="438.51" departLane="best" from="-5670139" to="460065821#1" type="truck_truck"/>
    <trip id="truck65" depart="445.36" departLane="best" from="-5670139" to="196117084#0" type="truck_truck"/>
    <trip id="truck66" depart="452.21" departLane="best" from="569345537#0" to="5672951#1" type="truck_truck"/>
    <trip id="truck67" depart="459.07" departLane="best" from="308322447#4" to="196116976#5" type="truck_truck"/>
    <trip id="truck68" depart="465.92" departLane="best" from="46538375#0" to="91383966#1" type="truck_truck"/>
    <trip id="truck69" depart="472.77" departLane="best" from="-5672752#1" to="195743336#2" type="truck_truck"/>
    <trip id="truck70" depart="479.62" departLane="best" from="499172074#0" to="196117084#0" type="truck_truck"/>
    <trip id="truck73" depart="500.18" departLane="best" from="420890025" to="-196116988#0" type="truck_truck"/>
    <trip id="truck74" depart="507.03" departLane="best" from="186202420#0" to="195743336#2" type="truck_truck"/>
    <trip id="truck75" depart="513.88" departLane="best" from="226041033" to="569345537#1" type="truck_truck"/>
    <trip id="truck76" depart="520.73" departLane="best" from="5669664#1" to="5672752#0" type="truck_truck"/>
    <trip id="truck77" depart="527.58" departLane="best" from="569345537#1" to="196117084#0" type="truck_truck"/>
    <trip id="truck78" depart="534.43" departLane="best" from="196116976#6" to="195743336#1" type="truck_truck"/>
    <trip id="truck79" depart="541.29" departLane="best" from="541350711#0" to="5672951#1" type="truck_truck"/>
    <trip id="truck82" depart="561.84" departLane="best" from="-196117084#1" to="5670139" type="truck_truck"/>
    <trip id="truck83" depart="568.69" departLane="best" from="22898530#2" to="618990022#13" type="truck_truck"/>
    <trip id="truck84" depart="575.55" departLane="best" from="5670253#1" to="5672752#1" type="truck_truck"/>
    <trip id="truck85" depart="582.40" departLane="best" from="196116975#4" to="5670874#2" type="truck_truck"/>
    <trip id="truck86" depart="589.25" departLane="best" from="420890028" to="308322447#4" type="truck_truck"/>
    <trip id="truck87" depart="596.10" departLane="best" from="5669664#1" to="196117092" type="truck_truck"/>
    <trip id="truck88" depart="602.95" departLane="best" from="618990022#7" to="46538375#13" type="truck_truck"/>
    <trip id="truck89" depart="609.80" departLane="best" from="618990022#0" to="195743336#2" type="truck_truck"/>
    <trip id="truck90" depart="616.66" departLane="best" from="618990022#4" to="196116976#7" type="truck_truck"/>
    <trip id="truck91" depart="623.51" departLane="best" from="-5670253#1" to="439801903" type="truck_truck"/>
    <trip id="truck92" depart="630.36" departLane="best" from="46538375#0" to="46538375#11" type="truck_truck"/>
    <trip id="truck93" depart="637.21" departLane="best" from="226041033" to="5671574#1" type="truck_truck"/>
    <trip id="truck94" depart="644.06" departLane="best" from="46583189#2" to="460065822#0" type="truck_truck"/>
    <trip id="truck95" depart="650.91" departLane="best" from="420890026" to="196117084#0" type="truck_truck"/>
    <trip id="truck96" depart="657.77" departLane="best" from="420899373" to="569345537#1" type="truck_truck"/>
    <trip id="truck97" depart="664.62" departLane="best" from="5669664#1" to="196116976#7" type="truck_truck"/>
    <trip id="truck98" depart="671.47" departLane="best" from="196116975#0" to="-496986969#1" type="truck_truck"/>
    <trip id="truck99" depart="678.32" departLane="best" from="5672290#1" to="-5672752#0" type="truck_truck"/>
    <trip id="truck100" depart="685.17" departLane="best" from="499172074#3" to="5670348#1" type="truck_truck"/>
    <trip id="truck101" depart="692.02" departLane="best" from="195743342#0" to="618990022#8" type="truck_truck"/>
    <trip id="truck102" depart="698.88" departLane="best" from="196116976#6" to="5671574#1" type="truck_truck"/>
    <trip id="truck104" depart="712.58" departLane="best" from="499172074#0" to="46538371#5" type="truck_truck"/>
    <trip id="truck105" depart="719.43" departLane="best" from="5670874#1" to="46538375#9" type="truck_truck"/>
    <trip id="truck106" depart="726.28" departLane="best" from="569345537#1" to="5670139" type="truck_truck"/>
    <trip id="truck107" depart="733.13" departLane="best" from="420899373" to="226041032#4" type="truck_truck"/>
    <trip id="truck108" depart="739.99" departLane="best" from="505582406#0" to="46538375#13" type="truck_truck"/>
    <trip id="truck109" depart="746.84" departLane="best" from="46538375#0" to="22898530#3" type="truck_truck"/>
    <trip id="truck110" depart="753.69" departLane="best" from="-5670139" to="308322446" type="truck_truck"/>
    <trip id="truck111" depart="760.54" departLane="best" from="198924778#1" to="308322448#2" type="truck_truck"/>
    <trip id="truck113" depart="774.25" departLane="best" from="46525065#0" to="505582406#1" type="truck_truck"/>
    <trip id="truck114" depart="781.10" departLane="best" from="308322447#1" to="5670253#0" type="truck_truck"/>
    <trip id="truck115" depart="787.95" departLane="best" from="420890024" to="5670139" type="truck_truck"/>
    <trip id="truck116" depart="794.80" departLane="best" from="420890026" to="-497258109" type="truck_truck"/>
    <trip id="truck117" depart="801.65" departLane="best" from="46538375#0" to="-497258109" type="truck_truck"/>
    <trip id="truck119" depart="815.36" departLane="best" from="499172074#3" to="5671574#1" type="truck_truck"/>
    <trip id="truck120" depart="822.21" departLane="best" from="-196117084#1" to="46538375#13" type="truck_truck"/>
    <trip id="truck121" depart="829.06" departLane="best" from="46583189#1" to="5670348#1" type="truck_truck"/>
    <trip id="truck122" depart="835.91" departLane="best" from="618990022#11" to="196117084#0" type="truck_truck"/>
    <trip id="truck123" depart="842.76" departLane="best" from="-196117084#1" to="196116976#3" type="truck_truck"/>
    <trip id="truck124" depart="849.61" departLane="best" from="497258108#0" to="5670348#1" type="truck_truck"/>
    <trip id="truck125" depart="856.47" departLane="best" from="195743342#0" to="497258108#1" type="truck_truck"/>
    <trip id="truck126" depart="863.32" departLane="best" from="499172074#0" to="-5672752#1" type="truck_truck"/>
    <trip id="truck127" depart="870.17" departLane="best" from="-5670253#0" to="5670348#1" type="truck_truck"/>
    <trip id="truck128" depart="877.02" departLane="best" from="-5670874#2" to="91383966#1" type="truck_truck"/>
    <trip id="truck129" depart="883.87" departLane="best" from="46538375#11" to="5671574#1" type="truck_truck"/>
    <trip id="truck130" depart="890.72" departLane="best" from="458180198#0" to="46538371#5" type="truck_truck"/>
    <trip id="truck131" depart="897.58" departLane="best" from="420890026" to="5670139" type="truck_truck"/>
    <trip id="truck132" depart="904.43" departLane="best" from="5670874#1" to="186202420#0" type="truck_truck"/>
    <trip id="truck134" depart="918.13" departLane="best" from="420890029" to="497258109" type="truck_truck"/>
    <trip id="truck135" depart="924.98" departLane="best" from="5672290#1" to="196116976#7" type="truck_truck"/>
    <trip id="truck137" depart="938.69" departLane="best" from="22898530#3" to="5672951#1" type="truck_truck"/>
    <trip id="truck138" depart="945.54" departLane="best" from="420905130#2" to="5670253#1" type="truck_truck"/>
    <trip id="truck139" depart="952.39" departLane="best" from="496989355#1" to="499172074#14" type="truck_truck"/>
    <trip id="truck140" depart="959.24" departLane="best" from="-5670139" to="196117084#0" type="truck_truck"/>
    <trip id="truck141" depart="966.09" departLane="best" from="46525065#0" to="46538371#3" type="truck_truck"/>
    <trip id="truck142" depart="972.95" departLane="best" from="196116976#6" to="195743336#2" type="truck_truck"/>
    <trip id="truck143" depart="979.80" departLane="best" from="196116975#0" to="195743336#2" type="truck_truck"/>
    <trip id="truck144" depart="986.65" departLane="best" from="458180198#0" to="5670348#0" type="truck_truck"/>
    <trip id="truck145" depart="993.50" departLane="best" from="195743342#0" to="196117084#0" type="truck_truck"/>
    <trip id="truck146" depart="1000.35" departLane="best" from="420905130#2" to="5670139" type="truck_truck"/>
    <trip id="truck147" depart="1007.20" departLane="best" from="618990022#6" to="46538375#13" type="truck_truck"/>
    <trip id="truck148" depart="1014.06" departLane="best" from="226041032#0" to="195743336#0" type="truck_truck"/>
    <trip id="truck149" depart="1020.91" departLane="best" from="195743342#0" to="-196117083" type="truck_truck"/>
    <trip id="truck150" depart="1027.76" departLane="best" from="458180198#0" to="22898530#3" type="truck_truck"/>
    <trip id="truck151" depart="1034.61" departLane="best" from="618990022#6" to="46583189#1" type="truck_truck"/>
    <trip id="truck152" depart="1041.46" departLane="best" from="569345537#0" to="46538371#5" type="truck_truck"/>
    <trip id="truck153" depart="1048.31" departLane="best" from="569345537#0" to="496986970#0" type="truck_truck"/>
    <trip id="truck154" depart="1055.17" departLane="best" from="5670873#1" to="420890029" type="truck_truck"/>
    <trip id="truck155" depart="1062.02" departLane="best" from="-5670139" to="499172074#11" type="truck_truck"/>
    <trip id="truck156" depart="1068.87" departLane="best" from="46525065#0" to="308322447#3" type="truck_truck"/>
    <trip id="truck157" depart="1075.72" departLane="best" from="5669664#0" to="196117092" type="truck_truck"/>
    <trip id="truck158" depart="1082.57" departLane="best" from="458180198#0" to="460065820" type="truck_truck"/>
    <trip id="truck159" depart="1089.42" departLane="best" from="46538375#0" to="497258109" type="truck_truck"/>
    <trip id="truck160" depart="1096.28" departLane="best" from="195743342#0" to="-5672752#1" type="truck_truck"/>
    <trip id="truck161" depart="1103.13" departLane="best" from="195743342#0" to="308322447#4" type="truck_truck"/>
    <trip id="truck162" depart="1109.98" departLane="best" from="618990022#10" to="46538371#5" type="truck_truck"/>
    <trip id="truck163" depart="1116.83" departLane="best" from="422298615#1" to="125480074" type="truck_truck"/>
    <trip id="truck164" depart="1123.68" departLane="best" from="-196117084#1" to="422298615#4" type="truck_truck"/>
    <trip id="truck165" depart="1130.53" departLane="best" from="-5670139" to="618990022#8" type="truck_truck"/>
    <trip id="truck166" depart="1137.39" departLane="best" from="-196117084#1" to="5670253#1" type="truck_truck"/>
    <trip id="truck167" depart="1144.24" departLane="best" from="420899372" to="499172074#14" type="truck_truck"/>
    <trip id="truck168" depart="1151.09" departLane="best" from="618990022#0" to="196116976#7" type="truck_truck"/>
    <trip id="truck169" depart="1157.94" departLane="best" from="46525065#0" to="499172074#12" type="truck_truck"/>
    <trip id="truck170" depart="1164.79" departLane="best" from="422298615#1" to="186202420#1" type="truck_truck"/>
    <trip id="truck171" depart="1171.65" departLane="best" from="5670873#0" to="46538375#9" type="truck_truck"/>
    <trip id="truck172" depart="1178.50" departLane="best" from="382740985#0" to="46538375#13" type="truck_truck"/>
    <trip id="truck173" depart="1185.35" departLane="best" from="618990022#8" to="499172074#14" type="truck_truck"/>
    <trip id="truck174" depart="1192.20" departLane="best" from="458180198#1" to="420905130#0" type="truck_truck"/>
    <trip id="truck175" depart="1199.05" departLane="best" from="195743342#0" to="382740985#6" type="truck_truck"/>
    <trip id="truck176" depart="1205.90" departLane="best" from="499172074#9" to="196117084#0" type="truck_truck"/>
    <trip id="truck177" depart="1212.76" departLane="best" from="-5670874#2" to="663543997" type="truck_truck"/>
    <trip id="truck179" depart="1226.46" departLane="best" from="420890028" to="195743336#2" type="truck_truck"/>
    <trip id="truck180" depart="1233.31" departLane="best" from="5670874#1" to="46538371#5" type="truck_truck"/>
    <trip id="truck182" depart="1247.01" departLane="best" from="618990022#0" to="46538375#11" type="truck_truck"/>
    <trip id="truck183" depart="1253.87" departLane="best" from="569345537#0" to="5672752#1" type="truck_truck"/>
    <trip id="truck184" depart="1260.72" departLane="best" from="198924778#2" to="5670348#1" type="truck_truck"/>
    <trip id="truck185" depart="1267.57" departLane="best" from="420890023" to="618990022#13" type="truck_truck"/>
    <trip id="truck186" depart="1274.42" departLane="best" from="439933933" to="5671574#0" type="truck_truck"/>
    <trip id="truck187" depart="1281.27" departLane="best" from="46525065#0" to="91383966#1" type="truck_truck"/>
    <trip id="truck188" depart="1288.12" departLane="best" from="422298615#1" to="196116976#1" type="truck_truck"/>
    <trip id="truck189" depart="1294.98" departLane="best" from="458180198#1" to="382740985#3" type="truck_truck"/>
    <trip id="truck191" depart="1308.68" departLane="best" from="195743342#0" to="505582406#1" type="truck_truck"/>
    <trip id="truck193" depart="1322.38" departLane="best" from="618990022#7" to="46538371#5" type="truck_truck"/>
    <trip id="truck194" depart="1329.23" departLane="best" from="46538371#0" to="5672951#0" type="truck_truck"/>
    <trip id="truck195" depart="1336.09" departLane="best" from="569345537#0" to="439933933" type="truck_truck"/>
    <trip id="truck196" depart="1342.94" departLane="best" from="458180198#0" to="460065821#1" type="truck_truck"/>
    <trip id="truck197" depart="1349.79" departLane="best" from="46583189#2" to="196116976#3" type="truck_truck"/>
    <trip id="truck198" depart="1356.64" departLane="best" from="499172074#0" to="5670348#0" type="truck_truck"/>
    <trip id="truck199" depart="1363.49" departLane="best" from="569345537#0" to="-505582406#0" type="truck_truck"/>
    <trip id="truck200" depart="1370.35" departLane="best" from="618990022#0" to="91383966#1" type="truck_truck"/>
    <trip id="truck201" depart="1377.20" departLane="best" from="-5670139" to="499172074#12" type="truck_truck"/>
    <trip id="truck202" depart="1384.05" departLane="best" from="569345537#0" to="439933933" type="truck_truck"/>
    <trip id="truck203" depart="1390.90" departLane="best" from="186202420#0" to="46538375#13" type="truck_truck"/>
    <trip id="truck205" depart="1404.60" departLane="best" from="195743342#0" to="-5672752#1" type="truck_truck"/>
    <trip id="truck206" depart="1411.46" departLane="best" from="195743336#0" to="439933933" type="truck_truck"/>
    <trip id="truck207" depart="1418.31" departLane="best" from="46538375#6" to="422298615#1" type="truck_truck"/>
    <trip id="truck208" depart="1425.16" departLane="best" from="196116976#6" to="5671574#1" type="truck_truck"/>
    <trip id="truck209" depart="1432.01" departLane="best" from="196116975#0" to="420890024" type="truck_truck"/>
    <trip id="truck210" depart="1438.86" departLane="best" from="46525065#0" to="496986970#0" type="truck_truck"/>
    <trip id="truck211" depart="1445.71" departLane="best" from="618990022#6" to="499172074#14" type="truck_truck"/>
    <trip id="truck212" depart="1452.57" departLane="best" from="496989355#0" to="5670139" type="truck_truck"/>
    <trip id="truck213" depart="1459.42" departLane="best" from="46538375#0" to="382740985#6" type="truck_truck"/>
    <trip id="truck214" depart="1466.27" departLane="best" from="46538375#0" to="569345537#1" type="truck_truck"/>
    <trip id="truck215" depart="1473.12" departLane="best" from="46538375#9" to="308322447#4" type="truck_truck"/>
    <trip id="truck216" depart="1479.97" departLane="best" from="226041032#4" to="5670139" type="truck_truck"/>
    <trip id="truck217" depart="1486.82" departLane="best" from="195743342#0" to="195743336#2" type="truck_truck"/>
    <trip id="truck218" depart="1493.68" departLane="best" from="458180198#1" to="663543997" type="truck_truck"/>
    <trip id="truck219" depart="1500.53" departLane="best" from="458180198#0" to="569345537#4" type="truck_truck"/>
    <trip id="truck220" depart="1507.38" departLane="best" from="5670874#0" to="46538371#5" type="truck_truck"/>
    <trip id="truck221" depart="1514.23" departLane="best" from="22898530#3" to="195743336#2" type="truck_truck"/>
    <trip id="truck222" depart="1521.08" departLane="best" from="499172074#1" to="91383966#1" type="truck_truck"/>
    <trip id="truck223" depart="1527.94" departLane="best" from="618990022#4" to="5670874#0" type="truck_truck"/>
    <trip id="truck224" depart="1534.79" departLane="best" from="308322447#3" to="5670348#1" type="truck_truck"/>
    <trip id="truck225" depart="1541.64" departLane="best" from="-196117083" to="46538375#13" type="truck_truck"/>
    <trip id="truck227" depart="1555.34" departLane="best" from="-196117084#1" to="5672951#1" type="truck_truck"/>
    <trip id="truck228" depart="1562.19" departLane="best" from="46525065#0" to="618990022#10" type="truck_truck"/>
    <trip id="truck229" depart="1569.05" departLane="best" from="196116975#4" to="-5670874#1" type="truck_truck"/>
    <trip id="truck230" depart="1575.90" departLane="best" from="226041033" to="46538371#5" type="truck_truck"/>
    <trip id="truck231" depart="1582.75" departLane="best" from="496986970#0" to="5670139" type="truck_truck"/>
    <trip id="truck232" depart="1589.60" departLane="best" from="420890023" to="195743336#0" type="truck_truck"/>
    <trip id="truck233" depart="1596.45" departLane="best" from="308322447#4" to="439933933" type="truck_truck"/>
    <trip id="truck234" depart="1603.30" departLane="best" from="-5670253#0" to="499172074#9" type="truck_truck"/>
    <trip id="truck235" depart="1610.16" departLane="best" from="195743342#0" to="195743336#2" type="truck_truck"/>
    <trip id="truck236" depart="1617.01" departLane="best" from="5672290#1" to="460065821#1" type="truck_truck"/>
    <trip id="truck237" depart="1623.86" departLane="best" from="496986969#0" to="499172074#13" type="truck_truck"/>
    <trip id="truck238" depart="1630.71" departLane="best" from="186202420#0" to="569345537#1" type="truck_truck"/>
    <trip id="truck239" depart="1637.56" departLane="best" from="186202420#0" to="195743336#2" type="truck_truck"/>
    <trip id="truck241" depart="1651.27" departLane="best" from="-5670253#1" to="46538371#5" type="truck_truck"/>
    <trip id="truck242" depart="1658.12" departLane="best" from="458180198#0" to="460065821#1" type="truck_truck"/>
    <trip id="truck243" depart="1664.97" departLane="best" from="618990022#3" to="-5670874#1" type="truck_truck"/>
    <trip id="truck244" depart="1671.82" departLane="best" from="496989355#0" to="46538371#5" type="truck_truck"/>
    <trip id="truck245" depart="1678.67" departLane="best" from="458180198#0" to="460065820" type="truck_truck"/>
    <trip id="truck246" depart="1685.52" departLane="best" from="46538375#0" to="195743336#0" type="truck_truck"/>
    <trip id="truck247" depart="1692.38" departLane="best" from="46583189#1" to="5670348#1" type="truck_truck"/>
    <trip id="truck248" depart="1699.23" departLane="best" from="499172074#1" to="196117084#0" type="truck_truck"/>
    <trip id="truck249" depart="1706.08" departLane="best" from="420890025" to="499172074#14" type="truck_truck"/>
    <trip id="truck250" depart="1712.93" departLane="best" from="618990022#0" to="-5670874#2" type="truck_truck"/>
    <trip id="truck251" depart="1719.78" departLane="best" from="5670874#1" to="186202420#1" type="truck_truck"/>
    <trip id="truck253" depart="1733.49" departLane="best" from="46525065#0" to="496986969#0" type="truck_truck"/>
    <trip id="truck254" depart="1740.34" departLane="best" from="22898530#0" to="195743336#2" type="truck_truck"/>
    <trip id="truck255" depart="1747.19" departLane="best" from="308322447#1" to="499172074#14" type="truck_truck"/>
    <trip id="truck256" depart="1754.04" departLane="best" from="46583189#2" to="196117084#0" type="truck_truck"/>
    <trip id="truck257" depart="1760.89" departLane="best" from="46525065#0" to="5670874#0" type="truck_truck"/>
    <trip id="truck259" depart="1774.60" departLane="best" from="618990022#0" to="5671574#1" type="truck_truck"/>
    <trip id="truck260" depart="1781.45" departLane="best" from="198924778#0" to="196116976#7" type="truck_truck"/>
    <trip id="truck261" depart="1788.30" departLane="best" from="499172074#2" to="196117084#0" type="truck_truck"/>
    <trip id="truck262" depart="1795.15" departLane="best" from="496986969#0" to="46538371#5" type="truck_truck"/>
    <trip id="truck263" depart="1802.00" departLane="best" from="496986970#1" to="46538371#5" type="truck_truck"/>
    <trip id="truck264" depart="1808.86" departLane="best" from="324118556#1" to="497258108#0" type="truck_truck"/>
    <trip id="truck265" depart="1815.71" departLane="best" from="-196116988#0" to="5670139" type="truck_truck"/>
    <trip id="truck266" depart="1822.56" departLane="best" from="195743342#0" to="420890024" type="truck_truck"/>
    <trip id="truck267" depart="1829.41" departLane="best" from="497258108#1" to="46538371#5" type="truck_truck"/>
    <trip id="truck268" depart="1836.26" departLane="best" from="-5670139" to="5672752#1" type="truck_truck"/>
    <trip id="truck269" depart="1843.11" departLane="best" from="-196117084#1" to="-496986969#0" type="truck_truck"/>
    <trip id="truck270" depart="1849.97" departLane="best" from="618990022#0" to="5672752#1" type="truck_truck"/>
    <trip id="truck271" depart="1856.82" departLane="best" from="46525065#0" to="496986970#0" type="truck_truck"/>
    <trip id="truck273" depart="1870.52" departLane="best" from="46538375#0" to="5671574#1" type="truck_truck"/>
    <trip id="truck274" depart="1877.37" departLane="best" from="618990022#0" to="186202420#0" type="truck_truck"/>
    <trip id="truck275" depart="1884.22" departLane="best" from="195743342#0" to="46538375#11" type="truck_truck"/>
    <trip id="truck276" depart="1891.08" departLane="best" from="-5670874#0" to="46538375#11" type="truck_truck"/>
    <trip id="truck277" depart="1897.93" departLane="best" from="499172074#11" to="5671574#0" type="truck_truck"/>
    <trip id="truck278" depart="1904.78" departLane="best" from="46583189#2" to="196116976#7" type="truck_truck"/>
    <trip id="truck279" depart="1911.63" departLane="best" from="505582406#1" to="46538371#5" type="truck_truck"/>
    <trip id="truck280" depart="1918.48" departLane="best" from="46525065#0" to="499172074#12" type="truck_truck"/>
    <trip id="truck281" depart="1925.34" departLane="best" from="46538375#0" to="5672752#1" type="truck_truck"/>
    <trip id="truck282" depart="1932.19" departLane="best" from="46538375#0" to="196116976#3" type="truck_truck"/>
    <trip id="truck283" depart="1939.04" departLane="best" from="-497258109" to="46538371#5" type="truck_truck"/>