<?xml version="1.0" encoding="UTF-8"?>
<!-- generated on 2019-03-18 00:26:07.157731 by $Id$ via randomTrips.py
  options: 
-->
<routes xmlns:xsi="http://www.w3.org/2001/XMLSchema-instance" xsi:noNamespaceSchemaLocation="http://sumo.dlr.de/xsd/routes_file.xsd">
    <vType id="bus_bus" vClass="bus">
    </vType>
    <trip id="bus0" depart="0.00" departLane="best" from="198924778#2" to="196117084#0" type="bus_bus"/>
    <trip id="bus1" depart="6.85" departLane="best" from="569345537#0" to="186202420#0" type="bus_bus"/>
    <trip id="bus2" depart="13.70" departLane="best" from="420890024" to="-497258109" type="bus_bus"/>
    <trip id="bus3" depart="20.56" departLane="best" from="196116975#0" to="46538371#5" type="bus_bus"/>
    <trip id="bus5" depart="34.26" departLane="best" from="5670253#1" to="505582406#1" type="bus_bus"/>
    <trip id="bus6" depart="41.11" departLane="best" from="458180198#0" to="663543997" type="bus_bus"/>
    <trip id="bus7" depart="47.96" departLane="best" from="308322448#1" to="46583189#1" type="bus_bus"/>
    <trip id="bus8" depart="54.81" departLane="best" from="-5670253#0" to="22898530#3" type="bus_bus"/>
    <trip id="bus9" depart="61.67" departLane="best" from="308322447#4" to="196117084#0" type="bus_bus"/>
    <trip id="bus11" depart="75.37" departLane="best" from="46538375#9" to="497258108#1" type="bus_bus"/>
    <trip id="bus12" depart="82.22" departLane="best" from="195743342#0" to="5670139" type="bus_bus"/>
    <trip id="bus13" depart="89.07" departLane="best" from="195743336#1" to="420890023" type="bus_bus"/>
    <trip id="bus15" depart="102.78" departLane="best" from="196116975#0" to="618990022#4" type="bus_bus"/>
    <trip id="bus16" depart="109.63" departLane="best" from="569345537#0" to="308322448#1" type="bus_bus"/>
    <trip id="bus17" depart="116.48" departLane="best" from="46583189#2" to="420890028" type="bus_bus"/>
    <trip id="bus18" depart="123.33" departLane="best" from="618990022#0" to="460065821#1" type="bus_bus"/>
    <trip id="bus19" depart="130.18" departLane="best" from="198924778#0" to="226041032#0" type="bus_bus"/>
    <trip id="bus20" depart="137.03" departLane="best" from="46525065#0" to="22898530#0" type="bus_bus"/>
    <trip id="bus21" depart="143.89" departLane="best" from="46525065#0" to="5672951#1" type="bus_bus"/>
    <trip id="bus22" depart="150.74" departLane="best" from="324118558" to="196117084#0" type="bus_bus"/>
    <trip id="bus23" depart="157.59" departLane="best" from="663543997" to="46538375#11" type="bus_bus"/>
    <trip id="bus24" depart="164.44" departLane="best" from="-5670253#1" to="499172074#11" type="bus_bus"/>
    <trip id="bus25" depart="171.29" departLane="best" from="5669664#1" to="420905130#2" type="bus_bus"/>
    <trip id="bus26" depart="178.14" departLane="best" from="663543997" to="46538375#13" type="bus_bus"/>
    <trip id="bus27" depart="185.00" departLane="best" from="-196117083" to="5669664#1" type="bus_bus"/>
    <trip id="bus28" depart="191.85" departLane="best" from="496989355#0" to="46538375#13" type="bus_bus"/>
    <trip id="bus29" depart="198.70" departLane="best" from="198924778#0" to="499172074#13" type="bus_bus"/>
    <trip id="bus30" depart="205.55" departLane="best" from="-5670874#0" to="439801903" type="bus_bus"/>
    <trip id="bus31" depart="212.40" departLane="best" from="569345537#0" to="22898530#0" type="bus_bus"/>
    <trip id="bus32" depart="219.26" departLane="best" from="439801903" to="196116976#7" type="bus_bus"/>
    <trip id="bus33" depart="226.11" departLane="best" from="618990022#0" to="5672951#0" type="bus_bus"/>
    <trip id="bus34" depart="232.96" departLane="best" from="46538375#0" to="196116976#3" type="bus_bus"/>
    <trip id="bus35" depart="239.81" departLane="best" from="499172074#9" to="46538375#13" type="bus_bus"/>
    <trip id="bus36" depart="246.66" departLane="best" from="-196117084#1" to="618990022#12" type="bus_bus"/>
    <trip id="bus37" depart="253.51" departLane="best" from="569345537#0" to="5671574#1" type="bus_bus"/>
    <trip id="bus38" depart="260.37" departLane="best" from="226041033" to="-5670874#0" type="bus_bus"/>
    <trip id="bus39" depart="267.22" departLane="best" from="-5670139" to="46538371#5" type="bus_bus"/>
    <trip id="bus40" depart="274.07" departLane="best" from="505582406#0" to="195743336#2" type="bus_bus"/>
    <trip id="bus41" depart="280.92" departLane="best" from="420899373" to="46538375#9" type="bus_bus"/>
    <trip id="bus42" depart="287.77" departLane="best" from="420890025" to="196117084#0" type="bus_bus"/>
    <trip id="bus43" depart="294.62" departLane="best" from="663543997" to="499172074#14" type="bus_bus"/>
    <trip id="bus44" depart="301.48" departLane="best" from="420890026" to="46538375#13" type="bus_bus"/>
    <trip id="bus45" depart="308.33" departLane="best" from="-5670874#2" to="196117092" type="bus_bus"/>
    <trip id="bus46" depart="315.18" departLane="best" from="196116976#0" to="196117084#0" type="bus_bus"/>
    <trip id="bus47" depart="322.03" departLane="best" from="196116975#0" to="195743336#2" type="bus_bus"/>
    <trip id="bus48" depart="328.88" departLane="best" from="618990022#0" to="496986969#1" type="bus_bus"/>
    <trip id="bus49" depart="335.73" departLane="best" from="5670253#1" to="196116976#7" type="bus_bus"/>
    <trip id="bus50" depart="342.59" departLane="best" from="460065821#1" to="-5670253#1" type="bus_bus"/>
    <trip id="bus51" depart="349.44" departLane="best" from="663543997" to="5671574#1" type="bus_bus"/>
    <trip id="bus52" depart="356.29" departLane="best" from="5672290#1" to="196116976#7" type="bus_bus"/>
    <trip id="bus53" depart="363.14" departLane="best" from="420905130#2" to="196117084#0" type="bus_bus"/>
    <trip id="bus54" depart="369.99" departLane="best" from="324118558" to="-5670874#0" type="bus_bus"/>
    <trip id="bus55" depart="376.84" departLane="best" from="198924778#0" to="5670348#1" type="bus_bus"/>
    <trip id="bus56" depart="383.70" departLane="best" from="420890026" to="422298615#1" type="bus_bus"/>
    <trip id="bus57" depart="390.55" departLane="best" from="618990022#13" to="91383966#1" type="bus_bus"/>
    <trip id="bus58" depart="397.40" departLane="best" from="460065822#0" to="5669664#1" type="bus_bus"/>
    <trip id="bus60" depart="411.10" departLane="best" from="-5670139" to="196116976#7" type="bus_bus"/>
    <trip id="bus61" depart="417.96" departLane="best" from="196116976#1" to="195743336#2" type="bus_bus"/>
    <trip id="bus62" depart="424.81" departLane="best" from="196116975#0" to="5669664#0" type="bus_bus"/>
    <trip id="bus63" depart="431.66" departLane="best" from="226041033" to="5670253#0" type="bus_bus"/>
    <trip id="bus64" depart="438.51" departLane="best" from="-5670139" to="460065821#1" type="bus_bus"/>
    <trip id="bus65" depart="445.36" departLane="best" from="-5670139" to="196117084#0" type="bus_bus"/>
    <trip id="bus66" depart="452.21" departLane="best" from="569345537#0" to="5672951#1" type="bus_bus"/>
    <trip id="bus67" depart="459.07" departLane="best" from="308322447#4" to="196116976#5" type="bus_bus"/>
    <trip id="bus68" depart="465.92" departLane="best" from="46538375#0" to="91383966#1" type="bus_bus"/>
    <trip id="bus69" depart="472.77" departLane="best" from="-5672752#1" to="195743336#2" type="bus_bus"/>
    <trip id="bus70" depart="479.62" departLane="best" from="499172074#0" to="196117084#0" type="bus_bus"/>
    <trip id="bus73" depart="500.18" departLane="best" from="420890025" to="-196116988#0" type="bus_bus"/>
    <trip id="bus74" depart="507.03" departLane="best" from="186202420#0" to="195743336#2" type="bus_bus"/>
    <trip id="bus75" depart="513.88" departLane="best" from="226041033" to="569345537#1" type="bus_bus"/>
    <trip id="bus76" depart="520.73" departLane="best" from="5669664#1" to="5672752#0" type="bus_bus"/>
    <trip id="bus77" depart="527.58" departLane="best" from="569345537#1" to="196117084#0" type="bus_bus"/>
    <trip id="bus78" depart="534.43" departLane="best" from="196116976#6" to="195743336#1" type="bus_bus"/>
    <trip id="bus79" depart="541.29" departLane="best" from="541350711#0" to="5672951#1" type="bus_bus"/>
    <trip id="bus82" depart="561.84" departLane="best" from="-196117084#1" to="5670139" type="bus_bus"/>
    <trip id="bus83" depart="568.69" departLane="best" from="22898530#2" to="618990022#13" type="bus_bus"/>
    <trip id="bus84" depart="575.55" departLane="best" from="5670253#1" to="5672752#1" type="bus_bus"/>
    <trip id="bus85" depart="582.40" departLane="best" from="196116975#4" to="5670874#2" type="bus_bus"/>
    <trip id="bus86" depart="589.25" departLane="best" from="420890028" to="308322447#4" type="bus_bus"/>
    <trip id="bus87" depart="596.10" departLane="best" from="5669664#1" to="196117092" type="bus_bus"/>
    <trip id="bus88" depart="602.95" departLane="best" from="618990022#7" to="46538375#13" type="bus_bus"/>
    <trip id="bus89" depart="609.80" departLane="best" from="618990022#0" to="195743336#2" type="bus_bus"/>
    <trip id="bus90" depart="616.66" departLane="best" from="618990022#4" to="196116976#7" type="bus_bus"/>
    <trip id="bus91" depart="623.51" departLane="best" from="-5670253#1" to="439801903" type="bus_bus"/>
    <trip id="bus92" depart="630.36" departLane="best" from="46538375#0" to="46538375#11" type="bus_bus"/>
    <trip id="bus93" depart="637.21" departLane="best" from="226041033" to="5671574#1" type="bus_bus"/>
    <trip id="bus94" depart="644.06" departLane="best" from="46583189#2" to="460065822#0" type="bus_bus"/>
    <trip id="bus95" depart="650.91" departLane="best" from="420890026" to="196117084#0" type="bus_bus"/>
    <trip id="bus96" depart="657.77" departLane="best" from="420899373" to="569345537#1" type="bus_bus"/>
    <trip id="bus97" depart="664.62" departLane="best" from="5669664#1" to="196116976#7" type="bus_bus"/>
    <trip id="bus98" depart="671.47" departLane="best" from="196116975#0" to="-496986969#1" type="bus_bus"/>
    <trip id="bus99" depart="678.32" departLane="best" from="5672290#1" to="-5672752#0" type="bus_bus"/>
    <trip id="bus100" depart="685.17" departLane="best" from="499172074#3" to="5670348#1" type="bus_bus"/>
    <trip id="bus101" depart="692.02" departLane="best" from="195743342#0" to="618990022#8" type="bus_bus"/>
    <trip id="bus102" depart="698.88" departLane="best" from="196116976#6" to="5671574#1" type="bus_bus"/>
    <trip id="bus104" depart="712.58" departLane="best" from="499172074#0" to="46538371#5" type="bus_bus"/>
    <trip id="bus105" depart="719.43" departLane="best" from="5670874#1" to="46538375#9" type="bus_bus"/>
    <trip id="bus106" depart="726.28" departLane="best" from="569345537#1" to="5670139" type="bus_bus"/>
    <trip id="bus107" depart="733.13" departLane="best" from="420899373" to="226041032#4" type="bus_bus"/>
    <trip id="bus108" depart="739.99" departLane="best" from="505582406#0" to="46538375#13" type="bus_bus"/>
    <trip id="bus109" depart="746.84" departLane="best" from="46538375#0" to="22898530#3" type="bus_bus"/>
    <trip id="bus110" depart="753.69" departLane="best" from="-5670139" to="308322446" type="bus_bus"/>
    <trip id="bus111" depart="760.54" departLane="best" from="198924778#1" to="308322448#2" type="bus_bus"/>
    <trip id="bus113" depart="774.25" departLane="best" from="46525065#0" to="505582406#1" type="bus_bus"/>
    <trip id="bus114" depart="781.10" departLane="best" from="308322447#1" to="5670253#0" type="bus_bus"/>
    <trip id="bus115" depart="787.95" departLane="best" from="420890024" to="5670139" type="bus_bus"/>
    <trip id="bus116" depart="794.80" departLane="best" from="420890026" to="-497258109" type="bus_bus"/>
    <trip id="bus117" depart="801.65" departLane="best" from="46538375#0" to="-497258109" type="bus_bus"/>
    <trip id="bus119" depart="815.36" departLane="best" from="499172074#3" to="5671574#1" type="bus_bus"/>
    <trip id="bus120" depart="822.21" departLane="best" from="-196117084#1" to="46538375#13" type="bus_bus"/>
    <trip id="bus121" depart="829.06" departLane="best" from="46583189#1" to="5670348#1" type="bus_bus"/>
    <trip id="bus122" depart="835.91" departLane="best" from="618990022#11" to="196117084#0" type="bus_bus"/>
    <trip id="bus123" depart="842.76" departLane="best" from="-196117084#1" to="196116976#3" type="bus_bus"/>
    <trip id="bus124" depart="849.61" departLane="best" from="497258108#0" to="5670348#1" type="bus_bus"/>
    <trip id="bus125" depart="856.47" departLane="best" from="195743342#0" to="497258108#1" type="bus_bus"/>
    <trip id="bus126" depart="863.32" departLane="best" from="499172074#0" to="-5672752#1" type="bus_bus"/>
    <trip id="bus127" depart="870.17" departLane="best" from="-5670253#0" to="5670348#1" type="bus_bus"/>
    <trip id="bus128" depart="877.02" departLane="best" from="-5670874#2" to="91383966#1" type="bus_bus"/>
    <trip id="bus129" depart="883.87" departLane="best" from="46538375#11" to="5671574#1" type="bus_bus"/>
    <trip id="bus130" depart="890.72" departLane="best" from="458180198#0" to="46538371#5" type="bus_bus"/>
    <trip id="bus131" depart="897.58" departLane="best" from="420890026" to="5670139" type="bus_bus"/>
    <trip id="bus132" depart="904.43" departLane="best" from="5670874#1" to="186202420#0" type="bus_bus"/>
    <trip id="bus134" depart="918.13" departLane="best" from="420890029" to="497258109" type="bus_bus"/>
    <trip id="bus135" depart="924.98" departLane="best" from="5672290#1" to="196116976#7" type="bus_bus"/>
    <trip id="bus137" depart="938.69" departLane="best" from="22898530#3" to="5672951#1" type="bus_bus"/>
    <trip id="bus138" depart="945.54" departLane="best" from="420905130#2" to="5670253#1" type="bus_bus"/>
    <trip id="bus139" depart="952.39" departLane="best" from="496989355#1" to="499172074#14" type="bus_bus"/>
    <trip id="bus140" depart="959.24" departLane="best" from="-5670139" to="196117084#0" type="bus_bus"/>
    <trip id="bus141" depart="966.09" departLane="best" from="46525065#0" to="46538371#3" type="bus_bus"/>
    <trip id="bus142" depart="972.95" departLane="best" from="196116976#6" to="195743336#2" type="bus_bus"/>
    <trip id="bus143" depart="979.80" departLane="best" from="196116975#0" to="195743336#2" type="bus_bus"/>
    <trip id="bus144" depart="986.65" departLane="best" from="458180198#0" to="5670348#0" type="bus_bus"/>
    <trip id="bus145" depart="993.50" departLane="best" from="195743342#0" to="196117084#0" type="bus_bus"/>
    <trip id="bus146" depart="1000.35" departLane="best" from="420905130#2" to="5670139" type="bus_bus"/>
    <trip id="bus147" depart="1007.20" departLane="best" from="618990022#6" to="46538375#13" type="bus_bus"/>
    <trip id="bus148" depart="1014.06" departLane="best" from="226041032#0" to="195743336#0" type="bus_bus"/>
    <trip id="bus149" depart="1020.91" departLane="best" from="195743342#0" to="-196117083" type="bus_bus"/>
    <trip id="bus150" depart="1027.76" departLane="best" from="458180198#0" to="22898530#3" type="bus_bus"/>
    <trip id="bus151" depart="1034.61" departLane="best" from="618990022#6" to="46583189#1" type="bus_bus"/>
    <trip id="bus152" depart="1041.46" departLane="best" from="569345537#0" to="46538371#5" type="bus_bus"/>
    <trip id="bus153" depart="1048.31" departLane="best" from="569345537#0" to="496986970#0" type="bus_bus"/>
    <trip id="bus154" depart="1055.17" departLane="best" from="5670873#1" to="420890029" type="bus_bus"/>
    <trip id="bus155" depart="1062.02" departLane="best" from="-5670139" to="499172074#11" type="bus_bus"/>
    <trip id="bus156" depart="1068.87" departLane="best" from="46525065#0" to="308322447#3" type="bus_bus"/>
    <trip id="bus157" depart="1075.72" departLane="best" from="5669664#0" to="196117092" type="bus_bus"/>
    <trip id="bus158" depart="1082.57" departLane="best" from="458180198#0" to="460065820" type="bus_bus"/>
    <trip id="bus159" depart="1089.42" departLane="best" from="46538375#0" to="497258109" type="bus_bus"/>
    <trip id="bus160" depart="1096.28" departLane="best" from="195743342#0" to="-5672752#1" type="bus_bus"/>
    <trip id="bus161" depart="1103.13" departLane="best" from="195743342#0" to="308322447#4" type="bus_bus"/>
    <trip id="bus162" depart="1109.98" departLane="best" from="618990022#10" to="46538371#5" type="bus_bus"/>
    <trip id="bus163" depart="1116.83" departLane="best" from="422298615#1" to="125480074" type="bus_bus"/>
    <trip id="bus164" depart="1123.68" departLane="best" from="-196117084#1" to="422298615#4" type="bus_bus"/>
    <trip id="bus165" depart="1130.53" departLane="best" from="-5670139" to="618990022#8" type="bus_bus"/>
    <trip id="bus166" depart="1137.39" departLane="best" from="-196117084#1" to="5670253#1" type="bus_bus"/>
    <trip id="bus167" depart="1144.24" departLane="best" from="420899372" to="499172074#14" type="bus_bus"/>
    <trip id="bus168" depart="1151.09" departLane="best" from="618990022#0" to="196116976#7" type="bus_bus"/>
    <trip id="bus169" depart="1157.94" departLane="best" from="46525065#0" to="499172074#12" type="bus_bus"/>
    <trip id="bus170" depart="1164.79" departLane="best" from="422298615#1" to="186202420#1" type="bus_bus"/>
    <trip id="bus171" depart="1171.65" departLane="best" from="5670873#0" to="46538375#9" type="bus_bus"/>
    <trip id="bus172" depart="1178.50" departLane="best" from="382740985#0" to="46538375#13" type="bus_bus"/>
    <trip id="bus173" depart="1185.35" departLane="best" from="618990022#8" to="499172074#14" type="bus_bus"/>
    <trip id="bus174" depart="1192.20" departLane="best" from="458180198#1" to="420905130#0" type="bus_bus"/>
    <trip id="bus175" depart="1199.05" departLane="best" from="195743342#0" to="382740985#6" type="bus_bus"/>
    <trip id="bus176" depart="1205.90" departLane="best" from="499172074#9" to="196117084#0" type="bus_bus"/>
    <trip id="bus177" depart="1212.76" departLane="best" from="-5670874#2" to="663543997" type="bus_bus"/>
    <trip id="bus179" depart="1226.46" departLane="best" from="420890028" to="195743336#2" type="bus_bus"/>
    <trip id="bus180" depart="1233.31" departLane="best" from="5670874#1" to="46538371#5" type="bus_bus"/>
    <trip id="bus182" depart="1247.01" departLane="best" from="618990022#0" to="46538375#11" type="bus_bus"/>
    <trip id="bus183" depart="1253.87" departLane="best" from="569345537#0" to="5672752#1" type="bus_bus"/>
    <trip id="bus184" depart="1260.72" departLane="best" from="198924778#2" to="5670348#1" type="bus_bus"/>
    <trip id="bus185" depart="1267.57" departLane="best" from="420890023" to="618990022#13" type="bus_bus"/>
    <trip id="bus186" depart="1274.42" departLane="best" from="439933933" to="5671574#0" type="bus_bus"/>
    <trip id="bus187" depart="1281.27" departLane="best" from="46525065#0" to="91383966#1" type="bus_bus"/>
    <trip id="bus188" depart="1288.12" departLane="best" from="422298615#1" to="196116976#1" type="bus_bus"/>
    <trip id="bus189" depart="1294.98" departLane="best" from="458180198#1" to="382740985#3" type="bus_bus"/>
    <trip id="bus191" depart="1308.68" departLane="best" from="195743342#0" to="505582406#1" type="bus_bus"/>
    <trip id="bus193" depart="1322.38" departLane="best" from="618990022#7" to="46538371#5" type="bus_bus"/>
    <trip id="bus194" depart="1329.23" departLane="best" from="46538371#0" to="5672951#0" type="bus_bus"/>
    <trip id="bus195" depart="1336.09" departLane="best" from="569345537#0" to="439933933" type="bus_bus"/>
    <trip id="bus196" depart="1342.94" departLane="best" from="458180198#0" to="460065821#1" type="bus_bus"/>
    <trip id="bus197" depart="1349.79" departLane="best" from="46583189#2" to="196116976#3" type="bus_bus"/>
    <trip id="bus198" depart="1356.64" departLane="best" from="499172074#0" to="5670348#0" type="bus_bus"/>
    <trip id="bus199" depart="1363.49" departLane="best" from="569345537#0" to="-505582406#0" type="bus_bus"/>
    <trip id="bus200" depart="1370.35" departLane="best" from="618990022#0" to="91383966#1" type="bus_bus"/>
    <trip id="bus201" depart="1377.20" departLane="best" from="-5670139" to="499172074#12" type="bus_bus"/>
    <trip id="bus202" depart="1384.05" departLane="best" from="569345537#0" to="439933933" type="bus_bus"/>
    <trip id="bus203" depart="1390.90" departLane="best" from="186202420#0" to="46538375#13" type="bus_bus"/>
    <trip id="bus205" depart="1404.60" departLane="best" from="195743342#0" to="-5672752#1" type="bus_bus"/>
    <trip id="bus206" depart="1411.46" departLane="best" from="195743336#0" to="439933933" type="bus_bus"/>
    <trip id="bus207" depart="1418.31" departLane="best" from="46538375#6" to="422298615#1" type="bus_bus"/>
    <trip id="bus208" depart="1425.16" departLane="best" from="196116976#6" to="5671574#1" type="bus_bus"/>
    <trip id="bus209" depart="1432.01" departLane="best" from="196116975#0" to="420890024" type="bus_bus"/>
    <trip id="bus210" depart="1438.86" departLane="best" from="46525065#0" to="496986970#0" type="bus_bus"/>
    <trip id="bus211" depart="1445.71" departLane="best" from="618990022#6" to="499172074#14" type="bus_bus"/>
    <trip id="bus212" depart="1452.57" departLane="best" from="496989355#0" to="5670139" type="bus_bus"/>
    <trip id="bus213" depart="1459.42" departLane="best" from="46538375#0" to="382740985#6" type="bus_bus"/>
    <trip id="bus214" depart="1466.27" departLane="best" from="46538375#0" to="569345537#1" type="bus_bus"/>
    <trip id="bus215" depart="1473.12" departLane="best" from="46538375#9" to="308322447#4" type="bus_bus"/>
    <trip id="bus216" depart="1479.97" departLane="best" from="226041032#4" to="5670139" type="bus_bus"/>
    <trip id="bus217" depart="1486.82" departLane="best" from="195743342#0" to="195743336#2" type="bus_bus"/>
    <trip id="bus218" depart="1493.68" departLane="best" from="458180198#1" to="663543997" type="bus_bus"/>
    <trip id="bus219" depart="1500.53" departLane="best" from="458180198#0" to="569345537#4" type="bus_bus"/>
    <trip id="bus220" depart="1507.38" departLane="best" from="5670874#0" to="46538371#5" type="bus_bus"/>
    <trip id="bus221" depart="1514.23" departLane="best" from="22898530#3" to="195743336#2" type="bus_bus"/>
    <trip id="bus222" depart="1521.08" departLane="best" from="499172074#1" to="91383966#1" type="bus_bus"/>
    <trip id="bus223" depart="1527.94" departLane="best" from="618990022#4" to="5670874#0" type="bus_bus"/>
    <trip id="bus224" depart="1534.79" departLane="best" from="308322447#3" to="5670348#1" type="bus_bus"/>
    <trip id="bus225" depart="1541.64" departLane="best" from="-196117083" to="46538375#13" type="bus_bus"/>
    <trip id="bus227" depart="1555.34" departLane="best" from="-196117084#1" to="5672951#1" type="bus_bus"/>
    <trip id="bus228" depart="1562.19" departLane="best" from="46525065#0" to="618990022#10" type="bus_bus"/>
    <trip id="bus229" depart="1569.05" departLane="best" from="196116975#4" to="-5670874#1" type="bus_bus"/>
    <trip id="bus230" depart="1575.90" departLane="best" from="226041033" to="46538371#5" type="bus_bus"/>
    <trip id="bus231" depart="1582.75" departLane="best" from="496986970#0" to="5670139" type="bus_bus"/>
    <trip id="bus232" depart="1589.60" departLane="best" from="420890023" to="195743336#0" type="bus_bus"/>
    <trip id="bus233" depart="1596.45" departLane="best" from="308322447#4" to="439933933" type="bus_bus"/>
    <trip id="bus234" depart="1603.30" departLane="best" from="-5670253#0" to="499172074#9" type="bus_bus"/>
    <trip id="bus235" depart="1610.16" departLane="best" from="195743342#0" to="195743336#2" type="bus_bus"/>
    <trip id="bus236" depart="1617.01" departLane="best" from="5672290#1" to="460065821#1" type="bus_bus"/>
    <trip id="bus237" depart="1623.86" departLane="best" from="496986969#0" to="499172074#13" type="bus_bus"/>
    <trip id="bus238" depart="1630.71" departLane="best" from="186202420#0" to="569345537#1" type="bus_bus"/>
    <trip id="bus239" depart="1637.56" departLane="best" from="186202420#0" to="195743336#2" type="bus_bus"/>
    <trip id="bus241" depart="1651.27" departLane="best" from="-5670253#1" to="46538371#5" type="bus_bus"/>
    <trip id="bus242" depart="1658.12" departLane="best" from="458180198#0" to="460065821#1" type="bus_bus"/>
    <trip id="bus243" depart="1664.97" departLane="best" from="618990022#3" to="-5670874#1" type="bus_bus"/>
    <trip id="bus244" depart="1671.82" departLane="best" from="496989355#0" to="46538371#5" type="bus_bus"/>
    <trip id="bus245" depart="1678.67" departLane="best" from="458180198#0" to="460065820" type="bus_bus"/>
    <trip id="bus246" depart="1685.52" departLane="best" from="46538375#0" to="195743336#0" type="bus_bus"/>
    <trip id="bus247" depart="1692.38" departLane="best" from="46583189#1" to="5670348#1" type="bus_bus"/>
    <trip id="bus248" depart="1699.23" departLane="best" from="499172074#1" to="196117084#0" type="bus_bus"/>
    <trip id="bus249" depart="1706.08" departLane="best" from="420890025" to="499172074#14" type="bus_bus"/>
    <trip id="bus250" depart="1712.93" departLane="best" from="618990022#0" to="-5670874#2" type="bus_bus"/>
    <trip id="bus251" depart="1719.78" departLane="best" from="5670874#1" to="186202420#1" type="bus_bus"/>
    <trip id="bus253" depart="1733.49" departLane="best" from="46525065#0" to="496986969#0" type="bus_bus"/>
    <trip id="bus254" depart="1740.34" departLane="best" from="22898530#0" to="195743336#2" type="bus_bus"/>
    <trip id="bus255" depart="1747.19" departLane="best" from="308322447#1" to="499172074#14" type="bus_bus"/>
    <trip id="bus256" depart="1754.04" departLane="best" from="46583189#2" to="196117084#0" type="bus_bus"/>
    <trip id="bus257" depart="1760.89" departLane="best" from="46525065#0" to="5670874#0" type="bus_bus"/>
    <trip id="bus259" depart="1774.60" departLane="best" from="618990022#0" to="5671574#1" type="bus_bus"/>
    <trip id="bus260" depart="1781.45" departLane="best" from="198924778#0" to="196116976#7" type="bus_bus"/>
    <trip id="bus261" depart="1788.30" departLane="best" from="499172074#2" to="196117084#0" type="bus_bus"/>
    <trip id="bus262" depart="1795.15" departLane="best" from="496986969#0" to="46538371#5" type="bus_bus"/>
    <trip id="bus263" depart="1802.00" departLane="best" from="496986970#1" to="46538371#5" type="bus_bus"/>
    <trip id="bus264" depart="1808.86" departLane="best" from="324118556#1" to="497258108#0" type="bus_bus"/>
    <trip id="bus265" depart="1815.71" departLane="best" from="-196116988#0" to="5670139" type="bus_bus"/>
    <trip id="bus266" depart="1822.56" departLane="best" from="195743342#0" to="420890024" type="bus_bus"/>
    <trip id="bus267" depart="1829.41" departLane="best" from="497258108#1" to="46538371#5" type="bus_bus"/>
    <trip id="bus268" depart="1836.26" departLane="best" from="-5670139" to="5672752#1" type="bus_bus"/>
    <trip id="bus269" depart="1843.11" departLane="best" from="-196117084#1" to="-496986969#0" type="bus_bus"/>
    <trip id="bus270" depart="1849.97" departLane="best" from="618990022#0" to="5672752#1" type="bus_bus"/>
    <trip id="bus271" depart="1856.82" departLane="best" from="46525065#0" to="496986970#0" type="bus_bus"/>
    <trip id="bus273" depart="1870.52" departLane="best" from="46538375#0" to="5671574#1" type="bus_bus"/>
    <trip id="bus274" depart="1877.37" departLane="best" from="618990022#0" to="186202420#0" type="bus_bus"/>
    <trip id="bus275" depart="1884.22" departLane="best" from="195743342#0" to="46538375#11" type="bus_bus"/>
    <trip id="bus276" depart="1891.08" departLane="best" from="-5670874#0" to="46538375#11" type="bus_bus"/>
    <trip id="bus277" depart="1897.93" departLane="best" from="499172074#11" to="5671574#0" type="bus_bus"/>
    <trip id="bus278" depart="1904.78" departLane="best" from="46583189#2" to="196116976#7" type="bus_bus"/>
    <trip id="bus279" depart="1911.63" departLane="best" from="505582406#1" to="46538371#5" type="bus_bus"/>
    <trip id="bus280" depart="1918.48" departLane="best" from="46525065#0" to="499172074#12" type="bus_bus"/>
    <trip id="bus281" depart="1925.34" departLane="best" from="46538375#0" to="5672752#1" type="bus_bus"/>
    <trip id="bus282" depart="1932.19" departLane="best" from="46538375#0" to="196116976#3" type="bus_bus"/>
    <trip id="bus283" depart="1939.04" departLane="best" from="-497258109" to="46538371#5" type="bus_bus"/>
    <trip id="bus284" depart="1945.89" departLane="best" from="-5670139" to="5672752#1" type="bus_bus"/>
    <trip id="bus286" depart="1959.59" departLane="best" from="569345537#1" to="460065820" type="bus_bus"/>
    <trip id="bus288" depart="1973.30" departLane="best" from="186202420#1" to="-5670874#1" type="bus_bus"/>
    <trip id="bus289" depart="1980.15" departLane="best" from="22898530#4" to="5669664#0" type="bus_bus"/>
    <trip id="bus290" depart="1987.00" departLane="best" from="439801903" to="196116976#7" type="bus_bus"/>
    <trip id="bus291" depart="1993.85" departLane="best" from="420890026" to="46538375#13" type="bus_bus"/>
    <trip id="bus292" depart="2000.70" departLane="best" from="195743336#0" to="382740985#6" type="bus_bus"/>
    <trip id="bus293" depart="2007.56" departLane="best" from="5669664#0" to="499172074#14" type="bus_bus"/>
    <trip id="bus294" depart="2014.41" departLane="best" from="499172074#1" to="499172074#14" type="bus_bus"/>
    <trip id="bus295" depart="2021.26" departLane="best" from="569345537#3" to="5672951#1" type="bus_bus"/>
    <trip id="bus296" depart="2028.11" departLane="best" from="125480074" to="382740985#6" type="bus_bus"/>
    <trip id="bus297" depart="2034.96" departLane="best" from="618990022#0" to="308322447#4" type="bus_bus"/>
    <trip id="bus299" depart="2048.67" departLane="best" from="496989355#0" to="46538375#13" type="bus_bus"/>
    <trip id="bus300" depart="2055.52" departLane="best" from="46538375#9" to="422298615#1" type="bus_bus"/>