<?xml version="1.0" encoding="UTF-8"?>
<!-- generated on 2019-03-18 00:26:06.319461 by $Id$ via randomTrips.py
  options: 
-->
<routes xmlns:xsi="http://www.w3.org/2001/XMLSchema-instance" xsi:noNamespaceSchemaLocation="http://sumo.dlr.de/xsd/routes_file.xsd">
    <vType id="veh_passenger" vClass="passenger">
    </vType>
    <trip id="veh0" depart="0.00" departLane="best" from="46538375#0" to="-496986969#1" type="veh_passenger"/>
    <trip id="veh1" depart="0.57" departLane="best" from="198924778#1" to="196117084#0" type="veh_passenger"/>
    <trip id="veh2" depart="1.14" departLane="best" from="569345537#0" to="186202420#1" type="veh_passenger"/>
    <trip id="veh3" depart="1.71" departLane="best" from="420890024" to="-497258109" type="veh_passenger"/>
    <trip id="veh4" depart="2.28" departLane="best" from="196116975#0" to="46538375#11" type="veh_passenger"/>
    <trip id="veh5" depart="2.85" departLane="best" from="196116975#0" to="496989355#3" type="veh_passenger"/>
    <trip id="veh7" depart="4.00" departLane="best" from="5670253#1" to="541350711#0" type="veh_passenger"/>
    <trip id="veh8" depart="4.57" departLane="best" from="22898530#2" to="196116976#5" type="veh_passenger"/>
    <trip id="veh9" depart="5.14" departLane="best" from="458180198#0" to="91383966#1" type="veh_passenger"/>
    <trip id="veh10" depart="5.71" departLane="best" from="308322448#1" to="46583189#1" type="veh_passenger"/>
    <trip id="veh11" depart="6.28" departLane="best" from="5670874#1" to="499172074#11" type="veh_passenger"/>
    <trip id="veh13" depart="7.42" departLane="best" from="496989355#3" to="-5670253#1" type="veh_passenger"/>
    <trip id="veh14" depart="7.99" departLane="best" from="196116975#0" to="308322447#1" type="veh_passenger"/>
    <trip id="veh15" depart="8.56" departLane="best" from="-5670139" to="22898530#4" type="veh_passenger"/>
    <trip id="veh16" depart="9.14" departLane="best" from="46538375#0" to="382740985#6" type="veh_passenger"/>
    <trip id="veh17" depart="9.71" departLane="best" from="308322447#3" to="196117084#0" type="veh_passenger"/>
    <trip id="veh18" depart="10.28" departLane="best" from="46538375#6" to="499172074#0" type="veh_passenger"/>
    <trip id="veh19" depart="10.85" departLane="best" from="195743342#0" to="5670139" type="veh_passenger"/>
    <trip id="veh20" depart="11.42" departLane="best" from="195743336#1" to="420890024" type="veh_passenger"/>
    <trip id="veh21" depart="11.99" departLane="best" from="618990022#8" to="499172074#14" type="veh_passenger"/>
    <trip id="veh23" depart="13.13" departLane="best" from="226041033" to="22898530#2" type="veh_passenger"/>
    <trip id="veh24" depart="13.70" departLane="best" from="196116975#0" to="618990022#4" type="veh_passenger"/>
    <trip id="veh25" depart="14.27" departLane="best" from="569345537#0" to="308322448#2" type="veh_passenger"/>
    <trip id="veh26" depart="14.85" departLane="best" from="46538375#9" to="420890029" type="veh_passenger"/>
    <trip id="veh27" depart="15.42" departLane="best" from="618990022#0" to="46538371#0" type="veh_passenger"/>
    <trip id="veh28" depart="15.99" departLane="best" from="196117092" to="226041032#0" type="veh_passenger"/>
    <trip id="veh29" depart="16.56" departLane="best" from="46525065#0" to="5672951#1" type="veh_passenger"/>
    <trip id="veh30" depart="17.13" departLane="best" from="324118558" to="196117084#0" type="veh_passenger"/>
    <trip id="veh31" depart="17.70" departLane="best" from="663543997" to="46538375#13" type="veh_passenger"/>
    <trip id="veh32" depart="18.27" departLane="best" from="-5670253#1" to="499172074#12" type="veh_passenger"/>
    <trip id="veh33" depart="18.84" departLane="best" from="663543997" to="46538375#13" type="veh_passenger"/>
    <trip id="veh34" depart="19.41" departLane="best" from="-196117083" to="5670139" type="veh_passenger"/>
    <trip id="veh35" depart="19.98" departLane="best" from="496986970#0" to="46538375#13" type="veh_passenger"/>
    <trip id="veh36" depart="20.56" departLane="best" from="196117092" to="499172074#14" type="veh_passenger"/>
    <trip id="veh37" depart="21.13" departLane="best" from="-5670253#1" to="439933933" type="veh_passenger"/>
    <trip id="veh38" depart="21.70" departLane="best" from="420890026" to="618990022#7" type="veh_passenger"/>
    <trip id="veh39" depart="22.27" departLane="best" from="569345537#0" to="22898530#0" type="veh_passenger"/>
    <trip id="veh40" depart="22.84" departLane="best" from="422298615#4" to="196116976#7" type="veh_passenger"/>
    <trip id="veh41" depart="23.41" departLane="best" from="618990022#0" to="5672951#1" type="veh_passenger"/>
    <trip id="veh42" depart="23.98" departLane="best" from="226041032#4" to="499172074#14" type="veh_passenger"/>
    <trip id="veh43" depart="24.55" departLane="best" from="541350711#0" to="46538375#13" type="veh_passenger"/>
    <trip id="veh45" depart="25.69" departLane="best" from="-196117084#1" to="618990022#12" type="veh_passenger"/>
    <trip id="veh46" depart="26.26" departLane="best" from="569345537#0" to="5671574#1" type="veh_passenger"/>
    <trip id="veh47" depart="26.84" departLane="best" from="226041033" to="-5670874#1" type="veh_passenger"/>
    <trip id="veh48" depart="27.41" departLane="best" from="569345537#0" to="618990022#6" type="veh_passenger"/>
    <trip id="veh49" depart="27.98" departLane="best" from="-5670139" to="46538371#5" type="veh_passenger"/>
    <trip id="veh50" depart="28.55" departLane="best" from="-505582406#1" to="5670348#1" type="veh_passenger"/>
    <trip id="veh51" depart="29.12" departLane="best" from="499172074#9" to="195743336#2" type="veh_passenger"/>
    <trip id="veh52" depart="29.69" departLane="best" from="196117092" to="5672951#1" type="veh_passenger"/>
    <trip id="veh53" depart="30.26" departLane="best" from="420890024" to="196117084#0" type="veh_passenger"/>
    <trip id="veh54" depart="30.83" departLane="best" from="196116975#0" to="308322448#2" type="veh_passenger"/>
    <trip id="veh55" depart="31.40" departLane="best" from="663543997" to="499172074#14" type="veh_passenger"/>
    <trip id="veh56" depart="31.97" departLane="best" from="420890026" to="46538375#13" type="veh_passenger"/>
    <trip id="veh57" depart="32.55" departLane="best" from="-5670874#1" to="196117084#0" type="veh_passenger"/>
    <trip id="veh58" depart="33.12" departLane="best" from="22898530#2" to="496989355#3" type="veh_passenger"/>
    <trip id="veh59" depart="33.69" departLane="best" from="196116975#4" to="196117084#0" type="veh_passenger"/>
    <trip id="veh60" depart="34.26" departLane="best" from="196116975#4" to="569345537#3" type="veh_passenger"/>
    <trip id="veh61" depart="34.83" departLane="best" from="196116975#0" to="196116975#4" type="veh_passenger"/>
    <trip id="veh62" depart="35.40" departLane="best" from="618990022#0" to="496986970#0" type="veh_passenger"/>
    <trip id="veh63" depart="35.97" departLane="best" from="420899372" to="5670348#1" type="veh_passenger"/>
    <trip id="veh64" depart="36.54" departLane="best" from="5670253#1" to="196116976#7" type="veh_passenger"/>
    <trip id="veh65" depart="37.11" departLane="best" from="-5670139" to="439801903" type="veh_passenger"/>
    <trip id="veh66" depart="37.68" departLane="best" from="618990022#7" to="195743336#1" type="veh_passenger"/>
    <trip id="veh67" depart="38.26" departLane="best" from="324118558" to="382740985#3" type="veh_passenger"/>
    <trip id="veh69" depart="39.40" departLane="best" from="195743342#0" to="460065821#1" type="veh_passenger"/>
    <trip id="veh70" depart="39.97" departLane="best" from="420890024" to="22898530#4" type="veh_passenger"/>
    <trip id="veh71" depart="40.54" departLane="best" from="420890026" to="5672752#1" type="veh_passenger"/>
    <trip id="veh72" depart="41.11" departLane="best" from="460065820" to="-5670874#0" type="veh_passenger"/>
    <trip id="veh73" depart="41.68" departLane="best" from="663543997" to="5671574#1" type="veh_passenger"/>
    <trip id="veh74" depart="42.25" departLane="best" from="618990022#4" to="618990022#12" type="veh_passenger"/>
    <trip id="veh75" depart="42.82" departLane="best" from="5672290#1" to="196116976#7" type="veh_passenger"/>
    <trip id="veh76" depart="43.39" departLane="best" from="420905130#0" to="196117084#0" type="veh_passenger"/>
    <trip id="veh77" depart="43.97" departLane="best" from="324118558" to="-5670874#1" type="veh_passenger"/>
    <trip id="veh78" depart="44.54" departLane="best" from="196117092" to="5670348#1" type="veh_passenger"/>
    <trip id="veh79" depart="45.11" departLane="best" from="420890026" to="422298615#4" type="veh_passenger"/>
    <trip id="veh80" depart="45.68" departLane="best" from="618990022#12" to="91383966#1" type="veh_passenger"/>
    <trip id="veh81" depart="46.25" departLane="best" from="460065821#1" to="5670139" type="veh_passenger"/>
    <trip id="veh82" depart="46.82" departLane="best" from="186202420#1" to="308322447#3" type="veh_passenger"/>
    <trip id="veh83" depart="47.39" departLane="best" from="618990022#3" to="496989355#0" type="veh_passenger"/>
    <trip id="veh84" depart="47.96" departLane="best" from="-497258109" to="496989355#1" type="veh_passenger"/>
    <trip id="veh86" depart="49.10" departLane="best" from="195743336#0" to="618990022#9" type="veh_passenger"/>
    <trip id="veh87" depart="49.68" departLane="best" from="-5670139" to="196116976#7" type="veh_passenger"/>
    <trip id="veh88" depart="50.25" departLane="best" from="46525065#0" to="499172074#5" type="veh_passenger"/>
    <trip id="veh89" depart="50.82" departLane="best" from="196116976#0" to="195743336#2" type="veh_passenger"/>
    <trip id="veh91" depart="51.96" departLane="best" from="46525065#0" to="499172074#11" type="veh_passenger"/>
    <trip id="veh92" depart="52.53" departLane="best" from="420890023" to="496989355#1" type="veh_passenger"/>
    <trip id="veh94" depart="53.67" departLane="best" from="196116975#0" to="5670139" type="veh_passenger"/>
    <trip id="veh95" depart="54.24" departLane="best" from="226041033" to="5670253#1" type="veh_passenger"/>
    <trip id="veh96" depart="54.81" departLane="best" from="-5670139" to="46538371#0" type="veh_passenger"/>
    <trip id="veh97" depart="55.38" departLane="best" from="-5670139" to="196117084#0" type="veh_passenger"/>
    <trip id="veh98" depart="55.96" departLane="best" from="196117092" to="618990022#13" type="veh_passenger"/>
    <trip id="veh99" depart="56.53" departLane="best" from="569345537#0" to="5672951#1" type="veh_passenger"/>
    <trip id="veh100" depart="57.10" departLane="best" from="308322447#3" to="196116976#6" type="veh_passenger"/>
    <trip id="veh101" depart="57.67" departLane="best" from="46538375#0" to="91383966#1" type="veh_passenger"/>
    <trip id="veh102" depart="58.24" departLane="best" from="46538375#9" to="-196116988#0" type="veh_passenger"/>
    <trip id="veh104" depart="59.38" departLane="best" from="-5672752#0" to="195743336#2" type="veh_passenger"/>
    <trip id="veh105" depart="59.95" departLane="best" from="497258109" to="196117084#0" type="veh_passenger"/>
    <trip id="veh106" depart="60.52" departLane="best" from="46538375#0" to="22898530#0" type="veh_passenger"/>
    <trip id="veh107" depart="61.09" departLane="best" from="5672290#1" to="195743336#0" type="veh_passenger"/>
    <trip id="veh108" depart="61.67" departLane="best" from="420890024" to="22898530#4" type="veh_passenger"/>
    <trip id="veh109" depart="62.24" departLane="best" from="-195743152#0" to="5670348#1" type="veh_passenger"/>
    <trip id="veh110" depart="62.81" departLane="best" from="46538375#0" to="22898530#0" type="veh_passenger"/>
    <trip id="veh112" depart="63.95" departLane="best" from="420890025" to="-196116988#0" type="veh_passenger"/>
    <trip id="veh113" depart="64.52" departLane="best" from="5670874#2" to="496989355#0" type="veh_passenger"/>
    <trip id="veh114" depart="65.09" departLane="best" from="186202420#0" to="195743336#2" type="veh_passenger"/>
    <trip id="veh115" depart="65.66" departLane="best" from="226041033" to="5672951#1" type="veh_passenger"/>
    <trip id="veh116" depart="66.23" departLane="best" from="5669664#1" to="5672752#1" type="veh_passenger"/>
    <trip id="veh117" depart="66.80" departLane="best" from="569345537#1" to="196117084#0" type="veh_passenger"/>
    <trip id="veh118" depart="67.38" departLane="best" from="196116976#5" to="195743336#2" type="veh_passenger"/>
    <trip id="veh119" depart="67.95" departLane="best" from="541350711#0" to="5672951#1" type="veh_passenger"/>
    <trip id="veh120" depart="68.52" departLane="best" from="186202420#1" to="618990022#13" type="veh_passenger"/>
    <trip id="veh123" depart="70.23" departLane="best" from="-196117084#1" to="5670139" type="veh_passenger"/>
    <trip id="veh124" depart="70.80" departLane="best" from="22898530#0" to="618990022#13" type="veh_passenger"/>
    <trip id="veh125" depart="71.37" departLane="best" from="5670253#0" to="5672752#1" type="veh_passenger"/>
    <trip id="veh126" depart="71.94" departLane="best" from="541350711#1" to="195743336#2" type="veh_passenger"/>
    <trip id="veh127" depart="72.51" departLane="best" from="569345537#0" to="5672752#0" type="veh_passenger"/>
    <trip id="veh128" depart="73.09" departLane="best" from="196116975#0" to="5671574#0" type="veh_passenger"/>
    <trip id="veh129" depart="73.66" departLane="best" from="420890026" to="308322447#4" type="veh_passenger"/>
    <trip id="veh130" depart="74.23" departLane="best" from="5669664#1" to="196117092" type="veh_passenger"/>
    <trip id="veh131" depart="74.80" departLane="best" from="-196117084#1" to="196117083" type="veh_passenger"/>
    <trip id="veh132" depart="75.37" departLane="best" from="226041033" to="5672951#0" type="veh_passenger"/>
    <trip id="veh133" depart="75.94" departLane="best" from="46538375#0" to="420899372" type="veh_passenger"/>
    <trip id="veh134" depart="76.51" departLane="best" from="618990022#7" to="46538375#13" type="veh_passenger"/>
    <trip id="veh135" depart="77.08" departLane="best" from="618990022#0" to="195743336#2" type="veh_passenger"/>
    <trip id="veh136" depart="77.65" departLane="best" from="618990022#4" to="196116976#7" type="veh_passenger"/>
    <trip id="veh137" depart="78.22" departLane="best" from="618990022#13" to="22898530#0" type="veh_passenger"/>
    <trip id="veh138" depart="78.79" departLane="best" from="-5670253#0" to="439933933" type="veh_passenger"/>
    <trip id="veh139" depart="79.37" departLane="best" from="499172074#1" to="308322448#2" type="veh_passenger"/>
    <trip id="veh140" depart="79.94" departLane="best" from="46538371#3" to="46538375#13" type="veh_passenger"/>
    <trip id="veh141" depart="80.51" departLane="best" from="196116976#6" to="5669664#1" type="veh_passenger"/>
    <trip id="veh142" depart="81.08" departLane="best" from="-195743152#0" to="618990022#12" type="veh_passenger"/>
    <trip id="veh143" depart="81.65" departLane="best" from="46583189#2" to="324118558" type="veh_passenger"/>
    <trip id="veh144" depart="82.22" departLane="best" from="226041033" to="5671574#1" type="veh_passenger"/>
    <trip id="veh145" depart="82.79" departLane="best" from="226041033" to="420905130#0" type="veh_passenger"/>
    <trip id="veh146" depart="83.36" departLane="best" from="324118558" to="308322447#2" type="veh_passenger"/>
    <trip id="veh147" depart="83.93" departLane="best" from="618990022#0" to="499172074#5" type="veh_passenger"/>
    <trip id="veh148" depart="84.50" departLane="best" from="226041033" to="46583189#1" type="veh_passenger"/>
    <trip id="veh149" depart="85.08" departLane="best" from="420890025" to="496989355#0" type="veh_passenger"/>
    <trip id="veh150" depart="85.65" departLane="best" from="420890026" to="196117084#0" type="veh_passenger"/>
    <trip id="veh151" depart="86.22" departLane="best" from="420899372" to="569345537#1" type="veh_passenger"/>
    <trip id="veh152" depart="86.79" departLane="best" from="5669664#1" to="196116976#7" type="veh_passenger"/>
    <trip id="veh153" depart="87.36" departLane="best" from="-5670139" to="46538375#13" type="veh_passenger"/>
    <trip id="veh154" depart="87.93" departLane="best" from="46538375#0" to="382740985#0" type="veh_passenger"/>
    <trip id="veh155" depart="88.50" departLane="best" from="496986969#0" to="196117084#0" type="veh_passenger"/>
    <trip id="veh156" depart="89.07" departLane="best" from="196116975#0" to="-496986969#1" type="veh_passenger"/>
    <trip id="veh157" depart="89.64" departLane="best" from="196116976#3" to="46538371#5" type="veh_passenger"/>
    <trip id="veh158" depart="90.21" departLane="best" from="5672290#1" to="-5672752#1" type="veh_passenger"/>
    <trip id="veh159" depart="90.79" departLane="best" from="382740985#3" to="499172074#13" type="veh_passenger"/>
    <trip id="veh160" depart="91.36" departLane="best" from="195743342#0" to="541350711#0" type="veh_passenger"/>
    <trip id="veh161" depart="91.93" departLane="best" from="46538375#9" to="-196116988#0" type="veh_passenger"/>
    <trip id="veh162" depart="92.50" departLane="best" from="499172074#2" to="5670348#1" type="veh_passenger"/>
    <trip id="veh163" depart="93.07" departLane="best" from="195743342#0" to="618990022#8" type="veh_passenger"/>
    <trip id="veh164" depart="93.64" departLane="best" from="196116976#5" to="5671574#1" type="veh_passenger"/>
    <trip id="veh165" depart="94.21" departLane="best" from="420890026" to="5670874#0" type="veh_passenger"/>
    <trip id="veh166" depart="94.78" departLane="best" from="46583189#2" to="91383966#1" type="veh_passenger"/>
    <trip id="veh167" depart="95.35" departLane="best" from="46525065#0" to="618990022#7" type="veh_passenger"/>
    <trip id="veh168" depart="95.92" departLane="best" from="569345537#0" to="499172074#0" type="veh_passenger"/>
    <trip id="veh169" depart="96.50" departLane="best" from="497258109" to="46538375#11" type="veh_passenger"/>
    <trip id="veh170" depart="97.07" departLane="best" from="569345537#1" to="5670139" type="veh_passenger"/>
    <trip id="veh171" depart="97.64" departLane="best" from="420899372" to="226041032#4" type="veh_passenger"/>
    <trip id="veh172" depart="98.21" departLane="best" from="196116976#3" to="499172074#14" type="veh_passenger"/>
    <trip id="veh173" depart="98.78" departLane="best" from="499172074#9" to="46538375#13" type="veh_passenger"/>
    <trip id="veh174" depart="99.35" departLane="best" from="46538375#0" to="22898530#3" type="veh_passenger"/>
    <trip id="veh175" depart="99.92" departLane="best" from="-5670139" to="308322446" type="veh_passenger"/>
    <trip id="veh176" depart="100.49" departLane="best" from="198924778#0" to="324118554#1" type="veh_passenger"/>
    <trip id="veh177" depart="101.06" departLane="best" from="458180198#0" to="196116976#0" type="veh_passenger"/>
    <trip id="veh178" depart="101.63" departLane="best" from="196116975#4" to="541350711#0" type="veh_passenger"/>
    <trip id="veh179" depart="102.20" departLane="best" from="497258108#0" to="-5670874#2" type="veh_passenger"/>
    <trip id="veh180" depart="102.78" departLane="best" from="420890023" to="196117084#0" type="veh_passenger"/>
    <trip id="veh181" depart="103.35" departLane="best" from="420890024" to="569345537#3" type="veh_passenger"/>
    <trip id="veh182" depart="103.92" departLane="best" from="46525065#0" to="541350711#0" type="veh_passenger"/>
    <trip id="veh183" depart="104.49" departLane="best" from="5672752#1" to="5670348#1" type="veh_passenger"/>
    <trip id="veh184" depart="105.06" departLane="best" from="308322448#1" to="-196116988#0" type="veh_passenger"/>
    <trip id="veh185" depart="105.63" departLane="best" from="22898530#4" to="5670253#1" type="veh_passenger"/>
    <trip id="veh186" depart="106.20" departLane="best" from="420890023" to="5670253#0" type="veh_passenger"/>
    <trip id="veh187" depart="106.77" departLane="best" from="196116975#0" to="196117084#0" type="veh_passenger"/>
    <trip id="veh188" depart="107.34" departLane="best" from="420890026" to="-497258109" type="veh_passenger"/>
    <trip id="veh189" depart="107.91" departLane="best" from="22898530#0" to="499172074#9" type="veh_passenger"/>
    <trip id="veh190" depart="108.49" departLane="best" from="382740985#0" to="196116976#7" type="veh_passenger"/>
    <trip id="veh191" depart="109.06" departLane="best" from="420890029" to="195743336#2" type="veh_passenger"/>
    <trip id="veh192" depart="109.63" departLane="best" from="46538375#0" to="-497258109" type="veh_passenger"/>
    <trip id="veh193" depart="110.20" departLane="best" from="324118556#1" to="496986969#1" type="veh_passenger"/>
    <trip id="veh194" depart="110.77" departLane="best" from="-196117084#1" to="499172074#14" type="veh_passenger"/>
    <trip id="veh195" depart="111.34" departLane="best" from="-5672752#1" to="46538371#0" type="veh_passenger"/>
    <trip id="veh196" depart="111.91" departLane="best" from="-496986969#0" to="420890024" type="veh_passenger"/>
    <trip id="veh197" depart="112.48" departLane="best" from="196116975#0" to="324118558" type="veh_passenger"/>
    <trip id="veh198" depart="113.05" departLane="best" from="499172074#3" to="5671574#1" type="veh_passenger"/>
    <trip id="veh199" depart="113.62" departLane="best" from="196116976#5" to="186202420#0" type="veh_passenger"/>
    <trip id="veh201" depart="114.77" departLane="best" from="663543997" to="382740985#6" type="veh_passenger"/>
    <trip id="veh202" depart="115.34" departLane="best" from="46538375#6" to="5670348#1" type="veh_passenger"/>
    <trip id="veh203" depart="115.91" departLane="best" from="46538375#6" to="5670348#0" type="veh_passenger"/>
    <trip id="veh204" depart="116.48" departLane="best" from="618990022#11" to="196117084#0" type="veh_passenger"/>
    <trip id="veh205" depart="117.05" departLane="best" from="-196117084#1" to="196116976#5" type="veh_passenger"/>
    <trip id="veh206" depart="117.62" departLane="best" from="-5670874#2" to="499172074#3" type="veh_passenger"/>
    <trip id="veh207" depart="118.19" departLane="best" from="460065822#0" to="196117084#0" type="veh_passenger"/>
    <trip id="veh208" depart="118.76" departLane="best" from="496989355#1" to="5670348#1" type="veh_passenger"/>
    <trip id="veh209" depart="119.33" departLane="best" from="195743342#0" to="497258109" type="veh_passenger"/>
    <trip id="veh210" depart="119.91" departLane="best" from="499172074#2" to="195743336#2" type="veh_passenger"/>
    <trip id="veh211" depart="120.48" departLane="best" from="5670873#1" to="618990022#9" type="veh_passenger"/>
    <trip id="veh212" depart="121.05" departLane="best" from="618990022#12" to="420890029" type="veh_passenger"/>
    <trip id="veh213" depart="121.62" departLane="best" from="497258108#1" to="125480074" type="veh_passenger"/>
    <trip id="veh214" depart="122.19" departLane="best" from="496989355#0" to="499172074#12" type="veh_passenger"/>
    <trip id="veh215" depart="122.76" departLane="best" from="-5670139" to="5670348#1" type="veh_passenger"/>
    <trip id="veh216" depart="123.33" departLane="best" from="5672752#0" to="497258108#1" type="veh_passenger"/>
    <trip id="veh217" depart="123.90" departLane="best" from="-5670874#1" to="91383966#1" type="veh_passenger"/>
    <trip id="veh218" depart="124.47" departLane="best" from="541350711#1" to="382740985#6" type="veh_passenger"/>
    <trip id="veh219" depart="125.04" departLane="best" from="420890025" to="382740985#6" type="veh_passenger"/>
    <trip id="veh220" depart="125.61" departLane="best" from="439801903" to="382740985#3" type="veh_passenger"/>
    <trip id="veh221" depart="126.19" departLane="best" from="-5670253#0" to="618990022#9" type="veh_passenger"/>
    <trip id="veh222" depart="126.76" departLane="best" from="46538375#0" to="5671574#1" type="veh_passenger"/>
    <trip id="veh223" depart="127.33" departLane="best" from="497258108#0" to="439933933" type="veh_passenger"/>
    <trip id="veh224" depart="127.90" departLane="best" from="458180198#0" to="46538371#5" type="veh_passenger"/>
    <trip id="veh225" depart="128.47" departLane="best" from="420890026" to="5670139" type="veh_passenger"/>
    <trip id="veh227" depart="129.61" departLane="best" from="5670874#1" to="186202420#1" type="veh_passenger"/>
    <trip id="veh229" depart="130.75" departLane="best" from="420890028" to="499172074#0" type="veh_passenger"/>
    <trip id="veh230" depart="131.32" departLane="best" from="308322448#1" to="-497258109" type="veh_passenger"/>
    <trip id="veh231" depart="131.90" departLane="best" from="5672752#0" to="196116976#7" type="veh_passenger"/>
    <trip id="veh233" depart="133.04" departLane="best" from="22898530#2" to="5672951#1" type="veh_passenger"/>
    <trip id="veh234" depart="133.61" departLane="best" from="496989355#3" to="22898530#3" type="veh_passenger"/>
    <trip id="veh235" depart="134.18" departLane="best" from="420905130#2" to="5670348#0" type="veh_passenger"/>
    <trip id="veh236" depart="134.75" departLane="best" from="496989355#0" to="499172074#14" type="veh_passenger"/>
    <trip id="veh238" depart="135.89" departLane="best" from="-5670139" to="196117084#0" type="veh_passenger"/>
    <trip id="veh239" depart="136.46" departLane="best" from="496989355#0" to="308322447#4" type="veh_passenger"/>
    <trip id="veh240" depart="137.03" departLane="best" from="46525065#0" to="46538371#5" type="veh_passenger"/>
    <trip id="veh241" depart="137.61" departLane="best" from="496989355#3" to="22898530#2" type="veh_passenger"/>
    <trip id="veh242" depart="138.18" departLane="best" from="196116976#5" to="195743336#2" type="veh_passenger"/>
    <trip id="veh243" depart="138.75" departLane="best" from="195743342#0" to="195743336#2" type="veh_passenger"/>
    <trip id="veh244" depart="139.32" departLane="best" from="458180198#0" to="5670348#1" type="veh_passenger"/>
    <trip id="veh245" depart="139.89" departLane="best" from="195743342#0" to="196117084#0" type="veh_passenger"/>
    <trip id="veh246" depart="140.46" departLane="best" from="420905130#0" to="5670139" type="veh_passenger"/>
    <trip id="veh247" depart="141.03" departLane="best" from="618990022#6" to="46538375#13" type="veh_passenger"/>
    <trip id="veh248" depart="141.60" departLane="best" from="198924778#2" to="195743336#2" type="veh_passenger"/>
    <trip id="veh249" depart="142.17" departLane="best" from="195743342#0" to="196117092" type="veh_passenger"/>
    <trip id="veh250" depart="142.74" departLane="best" from="195743342#0" to="-196117083" type="veh_passenger"/>
    <trip id="veh251" depart="143.32" departLane="best" from="458180198#0" to="22898530#3" type="veh_passenger"/>
    <trip id="veh252" depart="143.89" departLane="best" from="618990022#6" to="46583189#2" type="veh_passenger"/>
    <trip id="veh253" depart="144.46" departLane="best" from="496989355#1" to="195743336#2" type="veh_passenger"/>
    <trip id="veh254" depart="145.03" departLane="best" from="569345537#0" to="46538371#5" type="veh_passenger"/>
    <trip id="veh255" depart="145.60" departLane="best" from="569345537#0" to="496986970#1" type="veh_passenger"/>
    <trip id="veh257" depart="146.74" departLane="best" from="195743342#0" to="-5670874#0" type="veh_passenger"/>
    <trip id="veh258" depart="147.31" departLane="best" from="5670873#1" to="420899372" type="veh_passenger"/>
    <trip id="veh259" depart="147.88" departLane="best" from="-5670139" to="499172074#13" type="veh_passenger"/>
    <trip id="veh260" depart="148.45" departLane="best" from="460065822#0" to="308322447#4" type="veh_passenger"/>
    <trip id="veh261" depart="149.03" departLane="best" from="618990022#9" to="195743336#2" type="veh_passenger"/>
    <trip id="veh262" depart="149.60" departLane="best" from="499172074#9" to="497258109" type="veh_passenger"/>
    <trip id="veh263" depart="150.17" departLane="best" from="5669664#0" to="196117084#0" type="veh_passenger"/>
    <trip id="veh264" depart="150.74" departLane="best" from="458180198#0" to="460065821#1" type="veh_passenger"/>
    <trip id="veh265" depart="151.31" departLane="best" from="420890026" to="5672752#1" type="veh_passenger"/>
    <trip id="veh266" depart="151.88" departLane="best" from="618990022#9" to="308322447#4" type="veh_passenger"/>
    <trip id="veh267" depart="152.45" departLane="best" from="46538375#0" to="499172074#0" type="veh_passenger"/>
    <trip id="veh268" depart="153.02" departLane="best" from="196116975#0" to="196117084#0" type="veh_passenger"/>
    <trip id="veh269" depart="153.59" departLane="best" from="46583189#1" to="196116976#6" type="veh_passenger"/>
    <trip id="veh270" depart="154.16" departLane="best" from="195743342#0" to="-5672752#1" type="veh_passenger"/>
    <trip id="veh271" depart="154.73" departLane="best" from="-195743152#0" to="460065821#1" type="veh_passenger"/>
    <trip id="veh272" depart="155.31" departLane="best" from="46525065#0" to="308322447#1" type="veh_passenger"/>
    <trip id="veh273" depart="155.88" departLane="best" from="196116975#4" to="5669664#0" type="veh_passenger"/>
    <trip id="veh274" depart="156.45" departLane="best" from="496989355#3" to="460065822#0" type="veh_passenger"/>
    <trip id="veh275" depart="157.02" departLane="best" from="5669664#0" to="499172074#12" type="veh_passenger"/>
    <trip id="veh276" depart="157.59" departLane="best" from="420890025" to="46538375#9" type="veh_passenger"/>
    <trip id="veh277" depart="158.16" departLane="best" from="46538375#11" to="569345537#3" type="veh_passenger"/>
    <trip id="veh278" depart="158.73" departLane="best" from="5670874#0" to="-5672752#1" type="veh_passenger"/>
    <trip id="veh279" depart="159.30" departLane="best" from="195743342#0" to="308322448#1" type="veh_passenger"/>
    <trip id="veh280" depart="159.87" departLane="best" from="499172074#2" to="496986970#0" type="veh_passenger"/>